0
  -OEChem-05011718163D

  8  7  0     0  0  0  0  0  0999 V2000
   -1.4385   -0.2021    0.0004 C   0  0  0  0  0  0  0  0  0  0  0  0
    0.7724   -0.9867    0.0039 O   0  0  0  0  0  0  0  0  0  0  0  0
    0.0281    0.1071   -0.0014 C   0  0  0  0  0  0  0  0  0  0  0  0
    0.5054    1.2039   -0.0055 O   0  0  0  0  0  0  0  0  0  0  0  0
   -2.0078    0.7149   -0.0158 H   0  0  0  0  0  0  0  0  0  0  0  0
   -1.6841   -0.7754    0.8867 H   0  0  0  0  0  0  0  0  0  0  0  0
   -1.6818   -0.8060   -0.8658 H   0  0  0  0  0  0  0  0  0  0  0  0
    1.6972   -0.7451    0.0035 H   0  0  0  0  0  0  0  0  0  0  0  0
  1  3  1  0  0  0  0
  1  5  1  0  0  0  0
  1  6  1  0  0  0  0
  1  7  1  0  0  0  0
  2  3  1  0  0  0  0
  2  8  1  0  0  0  0
  3  4  2  0  0  0  0
M  END
> <QM Turbomole Final Opt. Energy (Har) HF/6-31G*>
-227.8233603490

> <QM Turbomole Opt. Runtime (sec) HF/6-31G*>
52.0

> <Original omega conformer number>
1

> <QM Turbomole Opt. Steps HF/6-31G*>
8

> <QM Turbomole Initial Opt. Energy (Har) HF/6-31G*>
-227.8160966973

$$$$
15
  -OEChem-05011718163D

  8  7  0     0  0  0  0  0  0999 V2000
   -1.4386   -0.2032    0.0088 C   0  0  0  0  0  0  0  0  0  0  0  0
    0.7746   -0.9839   -0.0378 O   0  0  0  0  0  0  0  0  0  0  0  0
    0.0273    0.1083    0.0210 C   0  0  0  0  0  0  0  0  0  0  0  0
    0.5014    1.2058    0.0434 O   0  0  0  0  0  0  0  0  0  0  0  0
   -2.0097    0.7112   -0.0474 H   0  0  0  0  0  0  0  0  0  0  0  0
   -1.6948   -0.7435    0.9131 H   0  0  0  0  0  0  0  0  0  0  0  0
   -1.6692   -0.8402   -0.8367 H   0  0  0  0  0  0  0  0  0  0  0  0
    1.6810   -0.7679    0.1751 H   0  0  0  0  0  0  0  0  0  0  0  0
  1  3  1  0  0  0  0
  1  5  1  0  0  0  0
  1  6  1  0  0  0  0
  1  7  1  0  0  0  0
  2  3  1  0  0  0  0
  2  8  1  0  0  0  0
  3  4  2  0  0  0  0
M  END
> <QM Turbomole Final Opt. Energy (Har) HF/6-31G*>
-227.8222203039

> <QM Turbomole Opt. Runtime (sec) HF/6-31G*>
93.0

> <Original omega conformer number>
1

> <QM Turbomole Opt. Steps HF/6-31G*>
14

> <QM Turbomole Initial Opt. Energy (Har) HF/6-31G*>
-227.8149781380

$$$$
30
  -OEChem-05011718163D

  8  7  0     0  0  0  0  0  0999 V2000
   -1.4388   -0.2061    0.0165 C   0  0  0  0  0  0  0  0  0  0  0  0
    0.7811   -0.9792   -0.0568 O   0  0  0  0  0  0  0  0  0  0  0  0
    0.0255    0.1111    0.0351 C   0  0  0  0  0  0  0  0  0  0  0  0
    0.4924    1.2104    0.0583 O   0  0  0  0  0  0  0  0  0  0  0  0
   -2.0150    0.7041   -0.0553 H   0  0  0  0  0  0  0  0  0  0  0  0
   -1.6970   -0.7361    0.9266 H   0  0  0  0  0  0  0  0  0  0  0  0
   -1.6606   -0.8568   -0.8209 H   0  0  0  0  0  0  0  0  0  0  0  0
    1.6320   -0.8288    0.3510 H   0  0  0  0  0  0  0  0  0  0  0  0
  1  3  1  0  0  0  0
  1  5  1  0  0  0  0
  1  6  1  0  0  0  0
  1  7  1  0  0  0  0
  2  3  1  0  0  0  0
  2  8  1  0  0  0  0
  3  4  2  0  0  0  0
M  END
> <QM Turbomole Final Opt. Energy (Har) HF/6-31G*>
-227.8190494847

> <QM Turbomole Opt. Runtime (sec) HF/6-31G*>
103.0

> <Original omega conformer number>
1

> <QM Turbomole Opt. Steps HF/6-31G*>
16

> <QM Turbomole Initial Opt. Energy (Har) HF/6-31G*>
-227.8115515119

$$$$
45
  -OEChem-05011718163D

  8  7  0     0  0  0  0  0  0999 V2000
   -1.4396   -0.2090    0.0222 C   0  0  0  0  0  0  0  0  0  0  0  0
    0.7898   -0.9791   -0.0563 O   0  0  0  0  0  0  0  0  0  0  0  0
    0.0235    0.1125    0.0385 C   0  0  0  0  0  0  0  0  0  0  0  0
    0.4841    1.2128    0.0421 O   0  0  0  0  0  0  0  0  0  0  0  0
   -2.0214    0.6985   -0.0395 H   0  0  0  0  0  0  0  0  0  0  0  0
   -1.6924   -0.7517    0.9262 H   0  0  0  0  0  0  0  0  0  0  0  0
   -1.6590   -0.8525   -0.8218 H   0  0  0  0  0  0  0  0  0  0  0  0
    1.5471   -0.9161    0.5226 H   0  0  0  0  0  0  0  0  0  0  0  0
  1  3  1  0  0  0  0
  1  5  1  0  0  0  0
  1  6  1  0  0  0  0
  1  7  1  0  0  0  0
  2  3  1  0  0  0  0
  2  8  1  0  0  0  0
  3  4  2  0  0  0  0
M  END
> <QM Turbomole Final Opt. Energy (Har) HF/6-31G*>
-227.8146929612

> <QM Turbomole Opt. Runtime (sec) HF/6-31G*>
88.0

> <Original omega conformer number>
1

> <QM Turbomole Opt. Steps HF/6-31G*>
13

> <QM Turbomole Initial Opt. Energy (Har) HF/6-31G*>
-227.8070782696

$$$$
60
  -OEChem-05011718163D

  8  7  0     0  0  0  0  0  0999 V2000
   -1.4402   -0.2109    0.0237 C   0  0  0  0  0  0  0  0  0  0  0  0
    0.8005   -0.9831   -0.0515 O   0  0  0  0  0  0  0  0  0  0  0  0
    0.0226    0.1111    0.0319 C   0  0  0  0  0  0  0  0  0  0  0  0
    0.4807    1.2102    0.0179 O   0  0  0  0  0  0  0  0  0  0  0  0
   -2.0255    0.6957   -0.0130 H   0  0  0  0  0  0  0  0  0  0  0  0
   -1.6836   -0.7765    0.9162 H   0  0  0  0  0  0  0  0  0  0  0  0
   -1.6643   -0.8357   -0.8333 H   0  0  0  0  0  0  0  0  0  0  0  0
    1.4235   -1.0237    0.6715 H   0  0  0  0  0  0  0  0  0  0  0  0
  1  3  1  0  0  0  0
  1  5  1  0  0  0  0
  1  6  1  0  0  0  0
  1  7  1  0  0  0  0
  2  3  1  0  0  0  0
  2  8  1  0  0  0  0
  3  4  2  0  0  0  0
M  END
> <QM Turbomole Final Opt. Energy (Har) HF/6-31G*>
-227.8103319238

> <QM Turbomole Opt. Runtime (sec) HF/6-31G*>
58.0

> <Original omega conformer number>
1

> <QM Turbomole Opt. Steps HF/6-31G*>
9

> <QM Turbomole Initial Opt. Energy (Har) HF/6-31G*>
-227.8026255070

$$$$
75
  -OEChem-05011718163D

  8  7  0     0  0  0  0  0  0999 V2000
   -1.4405   -0.2092    0.0213 C   0  0  0  0  0  0  0  0  0  0  0  0
    0.8108   -0.9888   -0.0480 O   0  0  0  0  0  0  0  0  0  0  0  0
    0.0234    0.1075    0.0200 C   0  0  0  0  0  0  0  0  0  0  0  0
    0.4841    1.2036   -0.0016 O   0  0  0  0  0  0  0  0  0  0  0  0
   -2.0244    0.6992    0.0140 H   0  0  0  0  0  0  0  0  0  0  0  0
   -1.6767   -0.7987    0.9001 H   0  0  0  0  0  0  0  0  0  0  0  0
   -1.6744   -0.8104   -0.8502 H   0  0  0  0  0  0  0  0  0  0  0  0
    1.2638   -1.1485    0.7778 H   0  0  0  0  0  0  0  0  0  0  0  0
  1  3  1  0  0  0  0
  1  5  1  0  0  0  0
  1  6  1  0  0  0  0
  1  7  1  0  0  0  0
  2  3  1  0  0  0  0
  2  8  1  0  0  0  0
  3  4  2  0  0  0  0
M  END
> <QM Turbomole Final Opt. Energy (Har) HF/6-31G*>
-227.8070274198

> <QM Turbomole Opt. Runtime (sec) HF/6-31G*>
44.0

> <Original omega conformer number>
1

> <QM Turbomole Opt. Steps HF/6-31G*>
7

> <QM Turbomole Initial Opt. Energy (Har) HF/6-31G*>
-227.7995581647

$$$$
90
  -OEChem-05011718163D

  8  7  0     0  0  0  0  0  0999 V2000
   -1.4405   -0.2011    0.0160 C   0  0  0  0  0  0  0  0  0  0  0  0
    0.8166   -0.9971   -0.0404 O   0  0  0  0  0  0  0  0  0  0  0  0
    0.0268    0.1019    0.0046 C   0  0  0  0  0  0  0  0  0  0  0  0
    0.4963    1.1931   -0.0226 O   0  0  0  0  0  0  0  0  0  0  0  0
   -2.0158    0.7124    0.0453 H   0  0  0  0  0  0  0  0  0  0  0  0
   -1.6742   -0.8179    0.8766 H   0  0  0  0  0  0  0  0  0  0  0  0
   -1.6897   -0.7699   -0.8729 H   0  0  0  0  0  0  0  0  0  0  0  0
    1.0725   -1.2819    0.8349 H   0  0  0  0  0  0  0  0  0  0  0  0
  1  3  1  0  0  0  0
  1  5  1  0  0  0  0
  1  6  1  0  0  0  0
  1  7  1  0  0  0  0
  2  3  1  0  0  0  0
  2  8  1  0  0  0  0
  3  4  2  0  0  0  0
M  END
> <QM Turbomole Final Opt. Energy (Har) HF/6-31G*>
-227.8056714447

> <QM Turbomole Opt. Runtime (sec) HF/6-31G*>
67.0

> <Original omega conformer number>
1

> <QM Turbomole Opt. Steps HF/6-31G*>
10

> <QM Turbomole Initial Opt. Energy (Har) HF/6-31G*>
-227.7983569986

$$$$
105
  -OEChem-05011718163D

  8  7  0     0  0  0  0  0  0999 V2000
   -1.4411   -0.1836    0.0093 C   0  0  0  0  0  0  0  0  0  0  0  0
    0.8143   -1.0049   -0.0349 O   0  0  0  0  0  0  0  0  0  0  0  0
    0.0314    0.0973   -0.0065 C   0  0  0  0  0  0  0  0  0  0  0  0
    0.5163    1.1820   -0.0290 O   0  0  0  0  0  0  0  0  0  0  0  0
   -2.0005    0.7388    0.0596 H   0  0  0  0  0  0  0  0  0  0  0  0
   -1.6831   -0.8123    0.8588 H   0  0  0  0  0  0  0  0  0  0  0  0
   -1.7044   -0.7298   -0.8896 H   0  0  0  0  0  0  0  0  0  0  0  0
    0.8656   -1.4227    0.8225 H   0  0  0  0  0  0  0  0  0  0  0  0
  1  3  1  0  0  0  0
  1  5  1  0  0  0  0
  1  6  1  0  0  0  0
  1  7  1  0  0  0  0
  2  3  1  0  0  0  0
  2  8  1  0  0  0  0
  3  4  2  0  0  0  0
M  END
> <QM Turbomole Final Opt. Energy (Har) HF/6-31G*>
-227.8063675492

> <QM Turbomole Opt. Runtime (sec) HF/6-31G*>
73.0

> <Original omega conformer number>
1

> <QM Turbomole Opt. Steps HF/6-31G*>
11

> <QM Turbomole Initial Opt. Energy (Har) HF/6-31G*>
-227.7995908670

$$$$
120
  -OEChem-05011718163D

  8  7  0     0  0  0  0  0  0999 V2000
   -1.4428   -0.1561    0.0030 C   0  0  0  0  0  0  0  0  0  0  0  0
    0.8022   -1.0155   -0.0248 O   0  0  0  0  0  0  0  0  0  0  0  0
    0.0366    0.0922   -0.0136 C   0  0  0  0  0  0  0  0  0  0  0  0
    0.5441    1.1677   -0.0338 O   0  0  0  0  0  0  0  0  0  0  0  0
   -1.9783    0.7794    0.0660 H   0  0  0  0  0  0  0  0  0  0  0  0
   -1.7022   -0.7878    0.8453 H   0  0  0  0  0  0  0  0  0  0  0  0
   -1.7214   -0.6830   -0.9028 H   0  0  0  0  0  0  0  0  0  0  0  0
    0.6584   -1.5541    0.7501 H   0  0  0  0  0  0  0  0  0  0  0  0
  1  3  1  0  0  0  0
  1  5  1  0  0  0  0
  1  6  1  0  0  0  0
  1  7  1  0  0  0  0
  2  3  1  0  0  0  0
  2  8  1  0  0  0  0
  3  4  2  0  0  0  0
M  END
> <QM Turbomole Final Opt. Energy (Har) HF/6-31G*>
-227.8087900720

> <QM Turbomole Opt. Runtime (sec) HF/6-31G*>
87.0

> <Original omega conformer number>
1

> <QM Turbomole Opt. Steps HF/6-31G*>
13

> <QM Turbomole Initial Opt. Energy (Har) HF/6-31G*>
-227.8024653070

$$$$
135
  -OEChem-05011718163D

  8  7  0     0  0  0  0  0  0999 V2000
   -1.4451   -0.1205   -0.0016 C   0  0  0  0  0  0  0  0  0  0  0  0
    0.7831   -1.0245   -0.0269 O   0  0  0  0  0  0  0  0  0  0  0  0
    0.0412    0.0903   -0.0104 C   0  0  0  0  0  0  0  0  0  0  0  0
    0.5752    1.1547   -0.0049 O   0  0  0  0  0  0  0  0  0  0  0  0
   -1.9539    0.8311    0.0303 H   0  0  0  0  0  0  0  0  0  0  0  0
   -1.7287   -0.7155    0.8599 H   0  0  0  0  0  0  0  0  0  0  0  0
   -1.7336   -0.6673   -0.8920 H   0  0  0  0  0  0  0  0  0  0  0  0
    0.4672   -1.6756    0.5944 H   0  0  0  0  0  0  0  0  0  0  0  0
  1  3  1  0  0  0  0
  1  5  1  0  0  0  0
  1  6  1  0  0  0  0
  1  7  1  0  0  0  0
  2  3  1  0  0  0  0
  2  8  1  0  0  0  0
  3  4  2  0  0  0  0
M  END
> <QM Turbomole Final Opt. Energy (Har) HF/6-31G*>
-227.8121805150

> <QM Turbomole Opt. Runtime (sec) HF/6-31G*>
67.0

> <Original omega conformer number>
1

> <QM Turbomole Opt. Steps HF/6-31G*>
10

> <QM Turbomole Initial Opt. Energy (Har) HF/6-31G*>
-227.8063518786

$$$$
150
  -OEChem-05011718163D

  8  7  0     0  0  0  0  0  0999 V2000
   -1.4472   -0.0855   -0.0030 C   0  0  0  0  0  0  0  0  0  0  0  0
    0.7605   -1.0365   -0.0235 O   0  0  0  0  0  0  0  0  0  0  0  0
    0.0446    0.0872   -0.0058 C   0  0  0  0  0  0  0  0  0  0  0  0
    0.6059    1.1390    0.0129 O   0  0  0  0  0  0  0  0  0  0  0  0
   -1.9286    0.8805   -0.0001 H   0  0  0  0  0  0  0  0  0  0  0  0
   -1.7507   -0.6457    0.8752 H   0  0  0  0  0  0  0  0  0  0  0  0
   -1.7483   -0.6485   -0.8790 H   0  0  0  0  0  0  0  0  0  0  0  0
    0.3103   -1.7597    0.4043 H   0  0  0  0  0  0  0  0  0  0  0  0
  1  3  1  0  0  0  0
  1  5  1  0  0  0  0
  1  6  1  0  0  0  0
  1  7  1  0  0  0  0
  2  3  1  0  0  0  0
  2  8  1  0  0  0  0
  3  4  2  0  0  0  0
M  END
> <QM Turbomole Final Opt. Energy (Har) HF/6-31G*>
-227.8156976995

> <QM Turbomole Opt. Runtime (sec) HF/6-31G*>
52.0

> <Original omega conformer number>
1

> <QM Turbomole Opt. Steps HF/6-31G*>
8

> <QM Turbomole Initial Opt. Energy (Har) HF/6-31G*>
-227.8100127340

$$$$
165
  -OEChem-05011718163D

  8  7  0     0  0  0  0  0  0999 V2000
   -1.4486   -0.0601   -0.0020 C   0  0  0  0  0  0  0  0  0  0  0  0
    0.7425   -1.0469   -0.0122 O   0  0  0  0  0  0  0  0  0  0  0  0
    0.0465    0.0839   -0.0033 C   0  0  0  0  0  0  0  0  0  0  0  0
    0.6282    1.1260    0.0088 O   0  0  0  0  0  0  0  0  0  0  0  0
   -1.9093    0.9159   -0.0116 H   0  0  0  0  0  0  0  0  0  0  0  0
   -1.7638   -0.6031    0.8826 H   0  0  0  0  0  0  0  0  0  0  0  0
   -1.7617   -0.6254   -0.8725 H   0  0  0  0  0  0  0  0  0  0  0  0
    0.2086   -1.8052    0.2064 H   0  0  0  0  0  0  0  0  0  0  0  0
  1  3  1  0  0  0  0
  1  5  1  0  0  0  0
  1  6  1  0  0  0  0
  1  7  1  0  0  0  0
  2  3  1  0  0  0  0
  2  8  1  0  0  0  0
  3  4  2  0  0  0  0
M  END
> <QM Turbomole Final Opt. Energy (Har) HF/6-31G*>
-227.8182247561

> <QM Turbomole Opt. Runtime (sec) HF/6-31G*>
44.0

> <Original omega conformer number>
1

> <QM Turbomole Opt. Steps HF/6-31G*>
7

> <QM Turbomole Initial Opt. Energy (Har) HF/6-31G*>
-227.8126547338

$$$$
180
  -OEChem-05011718163D

  8  7  0     0  0  0  0  0  0999 V2000
   -1.4490   -0.0506   -0.0002 C   0  0  0  0  0  0  0  0  0  0  0  0
    0.7357   -1.0506    0.0035 O   0  0  0  0  0  0  0  0  0  0  0  0
    0.0471    0.0828   -0.0025 C   0  0  0  0  0  0  0  0  0  0  0  0
    0.6364    1.1211   -0.0084 O   0  0  0  0  0  0  0  0  0  0  0  0
   -1.9023    0.9288   -0.0111 H   0  0  0  0  0  0  0  0  0  0  0  0
   -1.7664   -0.5914    0.8847 H   0  0  0  0  0  0  0  0  0  0  0  0
   -1.7686   -0.6127   -0.8707 H   0  0  0  0  0  0  0  0  0  0  0  0
    0.1733   -1.8196    0.0078 H   0  0  0  0  0  0  0  0  0  0  0  0
  1  3  1  0  0  0  0
  1  5  1  0  0  0  0
  1  6  1  0  0  0  0
  1  7  1  0  0  0  0
  2  3  1  0  0  0  0
  2  8  1  0  0  0  0
  3  4  2  0  0  0  0
M  END
> <QM Turbomole Final Opt. Energy (Har) HF/6-31G*>
-227.8191544743

> <QM Turbomole Opt. Runtime (sec) HF/6-31G*>
44.0

> <Original omega conformer number>
1

> <QM Turbomole Opt. Steps HF/6-31G*>
7

> <QM Turbomole Initial Opt. Energy (Har) HF/6-31G*>
-227.8136677001

$$$$
195
  -OEChem-05011718163D

  8  7  0     0  0  0  0  0  0999 V2000
   -1.4485   -0.0601    0.0018 C   0  0  0  0  0  0  0  0  0  0  0  0
    0.7429   -1.0461    0.0181 O   0  0  0  0  0  0  0  0  0  0  0  0
    0.0465    0.0844   -0.0012 C   0  0  0  0  0  0  0  0  0  0  0  0
    0.6279    1.1265   -0.0228 O   0  0  0  0  0  0  0  0  0  0  0  0
   -1.9097    0.9156   -0.0135 H   0  0  0  0  0  0  0  0  0  0  0  0
   -1.7596   -0.6015    0.8882 H   0  0  0  0  0  0  0  0  0  0  0  0
   -1.7654   -0.6273   -0.8668 H   0  0  0  0  0  0  0  0  0  0  0  0
    0.2092   -1.8065   -0.1938 H   0  0  0  0  0  0  0  0  0  0  0  0
  1  3  1  0  0  0  0
  1  5  1  0  0  0  0
  1  6  1  0  0  0  0
  1  7  1  0  0  0  0
  2  3  1  0  0  0  0
  2  8  1  0  0  0  0
  3  4  2  0  0  0  0
M  END
> <QM Turbomole Final Opt. Energy (Har) HF/6-31G*>
-227.8182392989

> <QM Turbomole Opt. Runtime (sec) HF/6-31G*>
51.0

> <Original omega conformer number>
1

> <QM Turbomole Opt. Steps HF/6-31G*>
8

> <QM Turbomole Initial Opt. Energy (Har) HF/6-31G*>
-227.8126880367

$$$$
210
  -OEChem-05011718163D

  8  7  0     0  0  0  0  0  0999 V2000
   -1.4470   -0.0860    0.0028 C   0  0  0  0  0  0  0  0  0  0  0  0
    0.7617   -1.0346    0.0307 O   0  0  0  0  0  0  0  0  0  0  0  0
    0.0446    0.0881    0.0009 C   0  0  0  0  0  0  0  0  0  0  0  0
    0.6048    1.1403   -0.0298 O   0  0  0  0  0  0  0  0  0  0  0  0
   -1.9294    0.8792   -0.0222 H   0  0  0  0  0  0  0  0  0  0  0  0
   -1.7460   -0.6277    0.8929 H   0  0  0  0  0  0  0  0  0  0  0  0
   -1.7515   -0.6677   -0.8607 H   0  0  0  0  0  0  0  0  0  0  0  0
    0.3121   -1.7628   -0.3890 H   0  0  0  0  0  0  0  0  0  0  0  0
  1  3  1  0  0  0  0
  1  5  1  0  0  0  0
  1  6  1  0  0  0  0
  1  7  1  0  0  0  0
  2  3  1  0  0  0  0
  2  8  1  0  0  0  0
  3  4  2  0  0  0  0
M  END
> <QM Turbomole Final Opt. Energy (Har) HF/6-31G*>
-227.8157003969

> <QM Turbomole Opt. Runtime (sec) HF/6-31G*>
58.0

> <Original omega conformer number>
1

> <QM Turbomole Opt. Steps HF/6-31G*>
9

> <QM Turbomole Initial Opt. Energy (Har) HF/6-31G*>
-227.8100309906

$$$$
225
  -OEChem-05011718163D

  8  7  0     0  0  0  0  0  0999 V2000
   -1.4448   -0.1208    0.0015 C   0  0  0  0  0  0  0  0  0  0  0  0
    0.7847   -1.0212    0.0372 O   0  0  0  0  0  0  0  0  0  0  0  0
    0.0412    0.0922    0.0042 C   0  0  0  0  0  0  0  0  0  0  0  0
    0.5738    1.1570   -0.0191 O   0  0  0  0  0  0  0  0  0  0  0  0
   -1.9549    0.8294   -0.0453 H   0  0  0  0  0  0  0  0  0  0  0  0
   -1.7308   -0.6528    0.9017 H   0  0  0  0  0  0  0  0  0  0  0  0
   -1.7292   -0.7308   -0.8492 H   0  0  0  0  0  0  0  0  0  0  0  0
    0.4685   -1.6828   -0.5728 H   0  0  0  0  0  0  0  0  0  0  0  0
  1  3  1  0  0  0  0
  1  5  1  0  0  0  0
  1  6  1  0  0  0  0
  1  7  1  0  0  0  0
  2  3  1  0  0  0  0
  2  8  1  0  0  0  0
  3  4  2  0  0  0  0
M  END
> <QM Turbomole Final Opt. Energy (Har) HF/6-31G*>
-227.8121989853

> <QM Turbomole Opt. Runtime (sec) HF/6-31G*>
52.0

> <Original omega conformer number>
1

> <QM Turbomole Opt. Steps HF/6-31G*>
8

> <QM Turbomole Initial Opt. Energy (Har) HF/6-31G*>
-227.8062962069

$$$$
240
  -OEChem-05011718163D

  8  7  0     0  0  0  0  0  0999 V2000
   -1.4423   -0.1566   -0.0027 C   0  0  0  0  0  0  0  0  0  0  0  0
    0.8044   -1.0110    0.0369 O   0  0  0  0  0  0  0  0  0  0  0  0
    0.0366    0.0948    0.0074 C   0  0  0  0  0  0  0  0  0  0  0  0
    0.5420    1.1714    0.0076 O   0  0  0  0  0  0  0  0  0  0  0  0
   -1.9799    0.7767   -0.0793 H   0  0  0  0  0  0  0  0  0  0  0  0
   -1.7184   -0.6702    0.9114 H   0  0  0  0  0  0  0  0  0  0  0  0
   -1.7016   -0.8017   -0.8349 H   0  0  0  0  0  0  0  0  0  0  0  0
    0.6606   -1.5635   -0.7281 H   0  0  0  0  0  0  0  0  0  0  0  0
  1  3  1  0  0  0  0
  1  5  1  0  0  0  0
  1  6  1  0  0  0  0
  1  7  1  0  0  0  0
  2  3  1  0  0  0  0
  2  8  1  0  0  0  0
  3  4  2  0  0  0  0
M  END
> <QM Turbomole Final Opt. Energy (Har) HF/6-31G*>
-227.8087828701

> <QM Turbomole Opt. Runtime (sec) HF/6-31G*>
52.0

> <Original omega conformer number>
1

> <QM Turbomole Opt. Steps HF/6-31G*>
8

> <QM Turbomole Initial Opt. Energy (Har) HF/6-31G*>
-227.8024700466

$$$$
255
  -OEChem-05011718163D

  8  7  0     0  0  0  0  0  0999 V2000
   -1.4406   -0.1840   -0.0089 C   0  0  0  0  0  0  0  0  0  0  0  0
    0.8162   -1.0006    0.0456 O   0  0  0  0  0  0  0  0  0  0  0  0
    0.0315    0.0997    0.0014 C   0  0  0  0  0  0  0  0  0  0  0  0
    0.5145    1.1855    0.0074 O   0  0  0  0  0  0  0  0  0  0  0  0
   -2.0018    0.7360   -0.0781 H   0  0  0  0  0  0  0  0  0  0  0  0
   -1.7027   -0.7119    0.9013 H   0  0  0  0  0  0  0  0  0  0  0  0
   -1.6815   -0.8309   -0.8450 H   0  0  0  0  0  0  0  0  0  0  0  0
    0.8672   -1.4310   -0.8056 H   0  0  0  0  0  0  0  0  0  0  0  0
  1  3  1  0  0  0  0
  1  5  1  0  0  0  0
  1  6  1  0  0  0  0
  1  7  1  0  0  0  0
  2  3  1  0  0  0  0
  2  8  1  0  0  0  0
  3  4  2  0  0  0  0
M  END
> <QM Turbomole Final Opt. Energy (Har) HF/6-31G*>
-227.8063620723

> <QM Turbomole Opt. Runtime (sec) HF/6-31G*>
58.0

> <Original omega conformer number>
1

> <QM Turbomole Opt. Steps HF/6-31G*>
9

> <QM Turbomole Initial Opt. Energy (Har) HF/6-31G*>
-227.7996372367

$$$$
270
  -OEChem-05011718173D

  8  7  0     0  0  0  0  0  0999 V2000
   -1.4401   -0.2014   -0.0154 C   0  0  0  0  0  0  0  0  0  0  0  0
    0.8186   -0.9919    0.0535 O   0  0  0  0  0  0  0  0  0  0  0  0
    0.0266    0.1046   -0.0103 C   0  0  0  0  0  0  0  0  0  0  0  0
    0.4940    1.1971   -0.0023 O   0  0  0  0  0  0  0  0  0  0  0  0
   -2.0172    0.7103   -0.0613 H   0  0  0  0  0  0  0  0  0  0  0  0
   -1.6875   -0.7538    0.8843 H   0  0  0  0  0  0  0  0  0  0  0  0
   -1.6731   -0.8347   -0.8640 H   0  0  0  0  0  0  0  0  0  0  0  0
    1.0750   -1.2913   -0.8168 H   0  0  0  0  0  0  0  0  0  0  0  0
  1  3  1  0  0  0  0
  1  5  1  0  0  0  0
  1  6  1  0  0  0  0
  1  7  1  0  0  0  0
  2  3  1  0  0  0  0
  2  8  1  0  0  0  0
  3  4  2  0  0  0  0
M  END
> <QM Turbomole Final Opt. Energy (Har) HF/6-31G*>
-227.8056702768

> <QM Turbomole Opt. Runtime (sec) HF/6-31G*>
51.0

> <Original omega conformer number>
1

> <QM Turbomole Opt. Steps HF/6-31G*>
8

> <QM Turbomole Initial Opt. Energy (Har) HF/6-31G*>
-227.7984449435

$$$$
285
  -OEChem-05011718173D

  8  7  0     0  0  0  0  0  0999 V2000
   -1.4401   -0.2096   -0.0205 C   0  0  0  0  0  0  0  0  0  0  0  0
    0.8126   -0.9843    0.0602 O   0  0  0  0  0  0  0  0  0  0  0  0
    0.0234    0.1096   -0.0249 C   0  0  0  0  0  0  0  0  0  0  0  0
    0.4821    1.2067   -0.0202 O   0  0  0  0  0  0  0  0  0  0  0  0
   -2.0256    0.6978   -0.0343 H   0  0  0  0  0  0  0  0  0  0  0  0
   -1.6734   -0.7907    0.8647 H   0  0  0  0  0  0  0  0  0  0  0  0
   -1.6748   -0.8198   -0.8854 H   0  0  0  0  0  0  0  0  0  0  0  0
    1.2655   -1.1558   -0.7632 H   0  0  0  0  0  0  0  0  0  0  0  0
  1  3  1  0  0  0  0
  1  5  1  0  0  0  0
  1  6  1  0  0  0  0
  1  7  1  0  0  0  0
  2  3  1  0  0  0  0
  2  8  1  0  0  0  0
  3  4  2  0  0  0  0
M  END
> <QM Turbomole Final Opt. Energy (Har) HF/6-31G*>
-227.8070595311

> <QM Turbomole Opt. Runtime (sec) HF/6-31G*>
58.0

> <Original omega conformer number>
1

> <QM Turbomole Opt. Steps HF/6-31G*>
9

> <QM Turbomole Initial Opt. Energy (Har) HF/6-31G*>
-227.7995987813

$$$$
300
  -OEChem-05011718173D

  8  7  0     0  0  0  0  0  0999 V2000
   -1.4399   -0.2113   -0.0225 C   0  0  0  0  0  0  0  0  0  0  0  0
    0.8021   -0.9781    0.0670 O   0  0  0  0  0  0  0  0  0  0  0  0
    0.0224    0.1130   -0.0373 C   0  0  0  0  0  0  0  0  0  0  0  0
    0.4786    1.2130   -0.0441 O   0  0  0  0  0  0  0  0  0  0  0  0
   -2.0267    0.6950   -0.0045 H   0  0  0  0  0  0  0  0  0  0  0  0
   -1.6629   -0.8183    0.8475 H   0  0  0  0  0  0  0  0  0  0  0  0
   -1.6824   -0.7958   -0.9030 H   0  0  0  0  0  0  0  0  0  0  0  0
    1.4258   -1.0309   -0.6547 H   0  0  0  0  0  0  0  0  0  0  0  0
  1  3  1  0  0  0  0
  1  5  1  0  0  0  0
  1  6  1  0  0  0  0
  1  7  1  0  0  0  0
  2  3  1  0  0  0  0
  2  8  1  0  0  0  0
  3  4  2  0  0  0  0
M  END
> <QM Turbomole Final Opt. Energy (Har) HF/6-31G*>
-227.8103282980

> <QM Turbomole Opt. Runtime (sec) HF/6-31G*>
82.0

> <Original omega conformer number>
1

> <QM Turbomole Opt. Steps HF/6-31G*>
12

> <QM Turbomole Initial Opt. Energy (Har) HF/6-31G*>
-227.8027214515

$$$$
315
  -OEChem-05011718173D

  8  7  0     0  0  0  0  0  0999 V2000
   -1.4392   -0.2093   -0.0208 C   0  0  0  0  0  0  0  0  0  0  0  0
    0.7912   -0.9744    0.0729 O   0  0  0  0  0  0  0  0  0  0  0  0
    0.0234    0.1141   -0.0439 C   0  0  0  0  0  0  0  0  0  0  0  0
    0.4824    1.2147   -0.0695 O   0  0  0  0  0  0  0  0  0  0  0  0
   -2.0226    0.6983    0.0217 H   0  0  0  0  0  0  0  0  0  0  0  0
   -1.6574   -0.8349    0.8368 H   0  0  0  0  0  0  0  0  0  0  0  0
   -1.6912   -0.7716   -0.9130 H   0  0  0  0  0  0  0  0  0  0  0  0
    1.5487   -0.9218   -0.5067 H   0  0  0  0  0  0  0  0  0  0  0  0
  1  3  1  0  0  0  0
  1  5  1  0  0  0  0
  1  6  1  0  0  0  0
  1  7  1  0  0  0  0
  2  3  1  0  0  0  0
  2  8  1  0  0  0  0
  3  4  2  0  0  0  0
M  END
> <QM Turbomole Final Opt. Energy (Har) HF/6-31G*>
-227.8146988437

> <QM Turbomole Opt. Runtime (sec) HF/6-31G*>
58.0

> <Original omega conformer number>
1

> <QM Turbomole Opt. Steps HF/6-31G*>
9

> <QM Turbomole Initial Opt. Energy (Har) HF/6-31G*>
-227.8070480611

$$$$
330
  -OEChem-05011718173D

  8  7  0     0  0  0  0  0  0999 V2000
   -1.4387   -0.2062   -0.0152 C   0  0  0  0  0  0  0  0  0  0  0  0
    0.7819   -0.9760    0.0715 O   0  0  0  0  0  0  0  0  0  0  0  0
    0.0254    0.1120   -0.0396 C   0  0  0  0  0  0  0  0  0  0  0  0
    0.4913    1.2111   -0.0812 O   0  0  0  0  0  0  0  0  0  0  0  0
   -2.0158    0.7050    0.0331 H   0  0  0  0  0  0  0  0  0  0  0  0
   -1.6604   -0.8353    0.8386 H   0  0  0  0  0  0  0  0  0  0  0  0
   -1.6955   -0.7597   -0.9115 H   0  0  0  0  0  0  0  0  0  0  0  0
    1.6329   -0.8319   -0.3386 H   0  0  0  0  0  0  0  0  0  0  0  0
  1  3  1  0  0  0  0
  1  5  1  0  0  0  0
  1  6  1  0  0  0  0
  1  7  1  0  0  0  0
  2  3  1  0  0  0  0
  2  8  1  0  0  0  0
  3  4  2  0  0  0  0
M  END
> <QM Turbomole Final Opt. Energy (Har) HF/6-31G*>
-227.8190534083

> <QM Turbomole Opt. Runtime (sec) HF/6-31G*>
93.0

> <Original omega conformer number>
1

> <QM Turbomole Opt. Steps HF/6-31G*>
14

> <QM Turbomole Initial Opt. Energy (Har) HF/6-31G*>
-227.8115277741

$$$$
345
  -OEChem-05011718183D

  8  7  0     0  0  0  0  0  0999 V2000
   -1.4385   -0.2032   -0.0073 C   0  0  0  0  0  0  0  0  0  0  0  0
    0.7751   -0.9818    0.0535 O   0  0  0  0  0  0  0  0  0  0  0  0
    0.0273    0.1088   -0.0253 C   0  0  0  0  0  0  0  0  0  0  0  0
    0.5009    1.2060   -0.0670 O   0  0  0  0  0  0  0  0  0  0  0  0
   -2.0102    0.7119    0.0251 H   0  0  0  0  0  0  0  0  0  0  0  0
   -1.6694   -0.8183    0.8542 H   0  0  0  0  0  0  0  0  0  0  0  0
   -1.6936   -0.7669   -0.8975 H   0  0  0  0  0  0  0  0  0  0  0  0
    1.6815   -0.7693   -0.1631 H   0  0  0  0  0  0  0  0  0  0  0  0
  1  3  1  0  0  0  0
  1  5  1  0  0  0  0
  1  6  1  0  0  0  0
  1  7  1  0  0  0  0
  2  3  1  0  0  0  0
  2  8  1  0  0  0  0
  3  4  2  0  0  0  0
M  END
> <QM Turbomole Final Opt. Energy (Har) HF/6-31G*>
-227.8222054947

> <QM Turbomole Opt. Runtime (sec) HF/6-31G*>
81.0

> <Original omega conformer number>
1

> <QM Turbomole Opt. Steps HF/6-31G*>
12

> <QM Turbomole Initial Opt. Energy (Har) HF/6-31G*>
-227.8149082448

$$$$
