0
  -OEChem-04261723013D

  8  7  0     0  0  0  0  0  0999 V2000
   -1.4380   -0.2024    0.0005 C   0  0  0  0  0  0  0  0  0  0  0  0
    0.7739   -0.9944    0.0056 O   0  0  0  0  0  0  0  0  0  0  0  0
    0.0306    0.1108   -0.0017 C   0  0  0  0  0  0  0  0  0  0  0  0
    0.5082    1.1976   -0.0080 O   0  0  0  0  0  0  0  0  0  0  0  0
   -2.0037    0.7168   -0.0140 H   0  0  0  0  0  0  0  0  0  0  0  0
   -1.6861   -0.7784    0.8845 H   0  0  0  0  0  0  0  0  0  0  0  0
   -1.6842   -0.8061   -0.8652 H   0  0  0  0  0  0  0  0  0  0  0  0
    1.6904   -0.7334    0.0042 H   0  0  0  0  0  0  0  0  0  0  0  0
  1  3  1  0  0  0  0
  1  5  1  0  0  0  0
  1  6  1  0  0  0  0
  1  7  1  0  0  0  0
  2  3  1  0  0  0  0
  2  8  1  0  0  0  0
  3  4  2  0  0  0  0
M  END
> <QM Turbomole Final Opt. Energy (Har) HF/6-31G*>
-227.8093343078

> <QM Turbomole Opt. Runtime (sec) HF/6-31G*>
52.0

> <Original omega conformer number>
1

> <QM Turbomole Opt. Steps HF/6-31G*>
8

> <QM Turbomole Initial Opt. Energy (Har) HF/6-31G*>
-227.7996219107

$$$$
15
  -OEChem-04261723013D

  8  7  0     0  0  0  0  0  0999 V2000
   -1.4382   -0.2034    0.0111 C   0  0  0  0  0  0  0  0  0  0  0  0
    0.7753   -0.9932   -0.0178 O   0  0  0  0  0  0  0  0  0  0  0  0
    0.0299    0.1122    0.0175 C   0  0  0  0  0  0  0  0  0  0  0  0
    0.5044    1.1999    0.0104 O   0  0  0  0  0  0  0  0  0  0  0  0
   -2.0059    0.7141   -0.0229 H   0  0  0  0  0  0  0  0  0  0  0  0
   -1.6935   -0.7667    0.9014 H   0  0  0  0  0  0  0  0  0  0  0  0
   -1.6747   -0.8213   -0.8474 H   0  0  0  0  0  0  0  0  0  0  0  0
    1.6746   -0.7550    0.1871 H   0  0  0  0  0  0  0  0  0  0  0  0
  1  3  1  0  0  0  0
  1  5  1  0  0  0  0
  1  6  1  0  0  0  0
  1  7  1  0  0  0  0
  2  3  1  0  0  0  0
  2  8  1  0  0  0  0
  3  4  2  0  0  0  0
M  END
> <QM Turbomole Final Opt. Energy (Har) HF/6-31G*>
-227.8079836176

> <QM Turbomole Opt. Runtime (sec) HF/6-31G*>
51.0

> <Original omega conformer number>
1

> <QM Turbomole Opt. Steps HF/6-31G*>
8

> <QM Turbomole Initial Opt. Energy (Har) HF/6-31G*>
-227.7982897088

$$$$
30
  -OEChem-04261723013D

  8  7  0     0  0  0  0  0  0999 V2000
   -1.4383   -0.2062    0.0197 C   0  0  0  0  0  0  0  0  0  0  0  0
    0.7807   -0.9900   -0.0347 O   0  0  0  0  0  0  0  0  0  0  0  0
    0.0285    0.1156    0.0317 C   0  0  0  0  0  0  0  0  0  0  0  0
    0.4948    1.2055    0.0201 O   0  0  0  0  0  0  0  0  0  0  0  0
   -2.0117    0.7073   -0.0264 H   0  0  0  0  0  0  0  0  0  0  0  0
   -1.6961   -0.7634    0.9133 H   0  0  0  0  0  0  0  0  0  0  0  0
   -1.6653   -0.8342   -0.8340 H   0  0  0  0  0  0  0  0  0  0  0  0
    1.6270   -0.8158    0.3648 H   0  0  0  0  0  0  0  0  0  0  0  0
  1  3  1  0  0  0  0
  1  5  1  0  0  0  0
  1  6  1  0  0  0  0
  1  7  1  0  0  0  0
  2  3  1  0  0  0  0
  2  8  1  0  0  0  0
  3  4  2  0  0  0  0
M  END
> <QM Turbomole Final Opt. Energy (Har) HF/6-31G*>
-227.8042888316

> <QM Turbomole Opt. Runtime (sec) HF/6-31G*>
58.0

> <Original omega conformer number>
1

> <QM Turbomole Opt. Steps HF/6-31G*>
9

> <QM Turbomole Initial Opt. Energy (Har) HF/6-31G*>
-227.7942623594

$$$$
45
  -OEChem-04261723013D

  8  7  0     0  0  0  0  0  0999 V2000
   -1.4388   -0.2092    0.0252 C   0  0  0  0  0  0  0  0  0  0  0  0
    0.7891   -0.9886   -0.0408 O   0  0  0  0  0  0  0  0  0  0  0  0
    0.0270    0.1183    0.0370 C   0  0  0  0  0  0  0  0  0  0  0  0
    0.4844    1.2099    0.0139 O   0  0  0  0  0  0  0  0  0  0  0  0
   -2.0184    0.7006   -0.0182 H   0  0  0  0  0  0  0  0  0  0  0  0
   -1.6940   -0.7727    0.9158 H   0  0  0  0  0  0  0  0  0  0  0  0
   -1.6613   -0.8361   -0.8308 H   0  0  0  0  0  0  0  0  0  0  0  0
    1.5441   -0.9069    0.5319 H   0  0  0  0  0  0  0  0  0  0  0  0
  1  3  1  0  0  0  0
  1  5  1  0  0  0  0
  1  6  1  0  0  0  0
  1  7  1  0  0  0  0
  2  3  1  0  0  0  0
  2  8  1  0  0  0  0
  3  4  2  0  0  0  0
M  END
> <QM Turbomole Final Opt. Energy (Har) HF/6-31G*>
-227.7991986206

> <QM Turbomole Opt. Runtime (sec) HF/6-31G*>
58.0

> <Original omega conformer number>
1

> <QM Turbomole Opt. Steps HF/6-31G*>
9

> <QM Turbomole Initial Opt. Energy (Har) HF/6-31G*>
-227.7888804468

$$$$
60
  -OEChem-04261723013D

  8  7  0     0  0  0  0  0  0999 V2000
   -1.4392   -0.2111    0.0264 C   0  0  0  0  0  0  0  0  0  0  0  0
    0.7999   -0.9903   -0.0430 O   0  0  0  0  0  0  0  0  0  0  0  0
    0.0266    0.1183    0.0333 C   0  0  0  0  0  0  0  0  0  0  0  0
    0.4783    1.2100    0.0022 O   0  0  0  0  0  0  0  0  0  0  0  0
   -2.0230    0.6968   -0.0026 H   0  0  0  0  0  0  0  0  0  0  0  0
   -1.6890   -0.7882    0.9100 H   0  0  0  0  0  0  0  0  0  0  0  0
   -1.6634   -0.8280   -0.8366 H   0  0  0  0  0  0  0  0  0  0  0  0
    1.4235   -1.0205    0.6738 H   0  0  0  0  0  0  0  0  0  0  0  0
  1  3  1  0  0  0  0
  1  5  1  0  0  0  0
  1  6  1  0  0  0  0
  1  7  1  0  0  0  0
  2  3  1  0  0  0  0
  2  8  1  0  0  0  0
  3  4  2  0  0  0  0
M  END
> <QM Turbomole Final Opt. Energy (Har) HF/6-31G*>
-227.7939759094

> <QM Turbomole Opt. Runtime (sec) HF/6-31G*>
49.0

> <Original omega conformer number>
1

> <QM Turbomole Opt. Steps HF/6-31G*>
8

> <QM Turbomole Initial Opt. Energy (Har) HF/6-31G*>
-227.7834128551

$$$$
75
  -OEChem-04261723013D

  8  7  0     0  0  0  0  0  0999 V2000
   -1.4394   -0.2092    0.0233 C   0  0  0  0  0  0  0  0  0  0  0  0
    0.8105   -0.9947   -0.0435 O   0  0  0  0  0  0  0  0  0  0  0  0
    0.0283    0.1156    0.0226 C   0  0  0  0  0  0  0  0  0  0  0  0
    0.4800    1.2054   -0.0098 O   0  0  0  0  0  0  0  0  0  0  0  0
   -2.0225    0.6997    0.0177 H   0  0  0  0  0  0  0  0  0  0  0  0
   -1.6843   -0.8040    0.8968 H   0  0  0  0  0  0  0  0  0  0  0  0
   -1.6722   -0.8084   -0.8498 H   0  0  0  0  0  0  0  0  0  0  0  0
    1.2656   -1.1498    0.7761 H   0  0  0  0  0  0  0  0  0  0  0  0
  1  3  1  0  0  0  0
  1  5  1  0  0  0  0
  1  6  1  0  0  0  0
  1  7  1  0  0  0  0
  2  3  1  0  0  0  0
  2  8  1  0  0  0  0
  3  4  2  0  0  0  0
M  END
> <QM Turbomole Final Opt. Energy (Har) HF/6-31G*>
-227.7898317129

> <QM Turbomole Opt. Runtime (sec) HF/6-31G*>
55.0

> <Original omega conformer number>
1

> <QM Turbomole Opt. Steps HF/6-31G*>
9

> <QM Turbomole Initial Opt. Energy (Har) HF/6-31G*>
-227.7792931382

$$$$
90
  -OEChem-04261723013D

  8  7  0     0  0  0  0  0  0999 V2000
   -1.4392   -0.2008    0.0172 C   0  0  0  0  0  0  0  0  0  0  0  0
    0.8173   -1.0009   -0.0425 O   0  0  0  0  0  0  0  0  0  0  0  0
    0.0323    0.1112    0.0092 C   0  0  0  0  0  0  0  0  0  0  0  0
    0.4906    1.1972   -0.0176 O   0  0  0  0  0  0  0  0  0  0  0  0
   -2.0147    0.7127    0.0366 H   0  0  0  0  0  0  0  0  0  0  0  0
   -1.6846   -0.8115    0.8801 H   0  0  0  0  0  0  0  0  0  0  0  0
   -1.6854   -0.7788   -0.8665 H   0  0  0  0  0  0  0  0  0  0  0  0
    1.0757   -1.2896    0.8251 H   0  0  0  0  0  0  0  0  0  0  0  0
  1  3  1  0  0  0  0
  1  5  1  0  0  0  0
  1  6  1  0  0  0  0
  1  7  1  0  0  0  0
  2  3  1  0  0  0  0
  2  8  1  0  0  0  0
  3  4  2  0  0  0  0
M  END
> <QM Turbomole Final Opt. Energy (Har) HF/6-31G*>
-227.7875749566

> <QM Turbomole Opt. Runtime (sec) HF/6-31G*>
55.0

> <Original omega conformer number>
1

> <QM Turbomole Opt. Steps HF/6-31G*>
9

> <QM Turbomole Initial Opt. Energy (Har) HF/6-31G*>
-227.7772622342

$$$$
105
  -OEChem-04261723013D

  8  7  0     0  0  0  0  0  0999 V2000
   -1.4394   -0.1834    0.0100 C   0  0  0  0  0  0  0  0  0  0  0  0
    0.8164   -1.0091   -0.0394 O   0  0  0  0  0  0  0  0  0  0  0  0
    0.0382    0.1063   -0.0021 C   0  0  0  0  0  0  0  0  0  0  0  0
    0.5098    1.1863   -0.0197 O   0  0  0  0  0  0  0  0  0  0  0  0
   -1.9991    0.7392    0.0478 H   0  0  0  0  0  0  0  0  0  0  0  0
   -1.6941   -0.8020    0.8651 H   0  0  0  0  0  0  0  0  0  0  0  0
   -1.7012   -0.7420   -0.8817 H   0  0  0  0  0  0  0  0  0  0  0  0
    0.8679   -1.4306    0.8104 H   0  0  0  0  0  0  0  0  0  0  0  0
  1  3  1  0  0  0  0
  1  5  1  0  0  0  0
  1  6  1  0  0  0  0
  1  7  1  0  0  0  0
  2  3  1  0  0  0  0
  2  8  1  0  0  0  0
  3  4  2  0  0  0  0
M  END
> <QM Turbomole Final Opt. Energy (Har) HF/6-31G*>
-227.7874920727

> <QM Turbomole Opt. Runtime (sec) HF/6-31G*>
69.0

> <Original omega conformer number>
1

> <QM Turbomole Opt. Steps HF/6-31G*>
11

> <QM Turbomole Initial Opt. Energy (Har) HF/6-31G*>
-227.7776523180

$$$$
120
  -OEChem-04261723013D

  8  7  0     0  0  0  0  0  0999 V2000
   -1.4406   -0.1562    0.0034 C   0  0  0  0  0  0  0  0  0  0  0  0
    0.8059   -1.0192   -0.0359 O   0  0  0  0  0  0  0  0  0  0  0  0
    0.0447    0.1019   -0.0074 C   0  0  0  0  0  0  0  0  0  0  0  0
    0.5365    1.1731   -0.0111 O   0  0  0  0  0  0  0  0  0  0  0  0
   -1.9769    0.7800    0.0415 H   0  0  0  0  0  0  0  0  0  0  0  0
   -1.7141   -0.7649    0.8603 H   0  0  0  0  0  0  0  0  0  0  0  0
   -1.7172   -0.7073   -0.8885 H   0  0  0  0  0  0  0  0  0  0  0  0
    0.6583   -1.5647    0.7271 H   0  0  0  0  0  0  0  0  0  0  0  0
  1  3  1  0  0  0  0
  1  5  1  0  0  0  0
  1  6  1  0  0  0  0
  1  7  1  0  0  0  0
  2  3  1  0  0  0  0
  2  8  1  0  0  0  0
  3  4  2  0  0  0  0
M  END
> <QM Turbomole Final Opt. Energy (Har) HF/6-31G*>
-227.7892408476

> <QM Turbomole Opt. Runtime (sec) HF/6-31G*>
75.0

> <Original omega conformer number>
1

> <QM Turbomole Opt. Steps HF/6-31G*>
12

> <QM Turbomole Initial Opt. Energy (Har) HF/6-31G*>
-227.7798101799

$$$$
135
  -OEChem-04261723013D

  8  7  0     0  0  0  0  0  0999 V2000
   -1.4424   -0.1219   -0.0011 C   0  0  0  0  0  0  0  0  0  0  0  0
    0.7874   -1.0312   -0.0334 O   0  0  0  0  0  0  0  0  0  0  0  0
    0.0504    0.0982   -0.0067 C   0  0  0  0  0  0  0  0  0  0  0  0
    0.5675    1.1582    0.0059 O   0  0  0  0  0  0  0  0  0  0  0  0
   -1.9508    0.8300    0.0188 H   0  0  0  0  0  0  0  0  0  0  0  0
   -1.7384   -0.7032    0.8679 H   0  0  0  0  0  0  0  0  0  0  0  0
   -1.7335   -0.6795   -0.8844 H   0  0  0  0  0  0  0  0  0  0  0  0
    0.4653   -1.6780    0.5818 H   0  0  0  0  0  0  0  0  0  0  0  0
  1  3  1  0  0  0  0
  1  5  1  0  0  0  0
  1  6  1  0  0  0  0
  1  7  1  0  0  0  0
  2  3  1  0  0  0  0
  2  8  1  0  0  0  0
  3  4  2  0  0  0  0
M  END
> <QM Turbomole Final Opt. Energy (Har) HF/6-31G*>
-227.7920519812

> <QM Turbomole Opt. Runtime (sec) HF/6-31G*>
58.0

> <Original omega conformer number>
1

> <QM Turbomole Opt. Steps HF/6-31G*>
9

> <QM Turbomole Initial Opt. Energy (Har) HF/6-31G*>
-227.7831161867

$$$$
150
  -OEChem-04261723013D

  8  7  0     0  0  0  0  0  0999 V2000
   -1.4443   -0.0878   -0.0025 C   0  0  0  0  0  0  0  0  0  0  0  0
    0.7655   -1.0450   -0.0268 O   0  0  0  0  0  0  0  0  0  0  0  0
    0.0547    0.0944   -0.0039 C   0  0  0  0  0  0  0  0  0  0  0  0
    0.5977    1.1419    0.0161 O   0  0  0  0  0  0  0  0  0  0  0  0
   -1.9248    0.8785   -0.0034 H   0  0  0  0  0  0  0  0  0  0  0  0
   -1.7590   -0.6406    0.8785 H   0  0  0  0  0  0  0  0  0  0  0  0
   -1.7507   -0.6525   -0.8765 H   0  0  0  0  0  0  0  0  0  0  0  0
    0.3075   -1.7579    0.3995 H   0  0  0  0  0  0  0  0  0  0  0  0
  1  3  1  0  0  0  0
  1  5  1  0  0  0  0
  1  6  1  0  0  0  0
  1  7  1  0  0  0  0
  2  3  1  0  0  0  0
  2  8  1  0  0  0  0
  3  4  2  0  0  0  0
M  END
> <QM Turbomole Final Opt. Energy (Har) HF/6-31G*>
-227.7949899327

> <QM Turbomole Opt. Runtime (sec) HF/6-31G*>
45.0

> <Original omega conformer number>
1

> <QM Turbomole Opt. Steps HF/6-31G*>
7

> <QM Turbomole Initial Opt. Energy (Har) HF/6-31G*>
-227.7862901467

$$$$
165
  -OEChem-04261723013D

  8  7  0     0  0  0  0  0  0999 V2000
   -1.4454   -0.0628   -0.0018 C   0  0  0  0  0  0  0  0  0  0  0  0
    0.7479   -1.0562   -0.0136 O   0  0  0  0  0  0  0  0  0  0  0  0
    0.0573    0.0910   -0.0025 C   0  0  0  0  0  0  0  0  0  0  0  0
    0.6197    1.1289    0.0091 O   0  0  0  0  0  0  0  0  0  0  0  0
   -1.9055    0.9131   -0.0118 H   0  0  0  0  0  0  0  0  0  0  0  0
   -1.7703   -0.6014    0.8841 H   0  0  0  0  0  0  0  0  0  0  0  0
   -1.7655   -0.6259   -0.8726 H   0  0  0  0  0  0  0  0  0  0  0  0
    0.2043   -1.8016    0.2052 H   0  0  0  0  0  0  0  0  0  0  0  0
  1  3  1  0  0  0  0
  1  5  1  0  0  0  0
  1  6  1  0  0  0  0
  1  7  1  0  0  0  0
  2  3  1  0  0  0  0
  2  8  1  0  0  0  0
  3  4  2  0  0  0  0
M  END
> <QM Turbomole Final Opt. Energy (Har) HF/6-31G*>
-227.7971602375

> <QM Turbomole Opt. Runtime (sec) HF/6-31G*>
45.0

> <Original omega conformer number>
1

> <QM Turbomole Opt. Steps HF/6-31G*>
7

> <QM Turbomole Initial Opt. Energy (Har) HF/6-31G*>
-227.7886204664

$$$$
180
  -OEChem-04261723013D

  8  7  0     0  0  0  0  0  0999 V2000
   -1.4458   -0.0535   -0.0001 C   0  0  0  0  0  0  0  0  0  0  0  0
    0.7412   -1.0601    0.0038 O   0  0  0  0  0  0  0  0  0  0  0  0
    0.0581    0.0900   -0.0027 C   0  0  0  0  0  0  0  0  0  0  0  0
    0.6277    1.1242   -0.0093 O   0  0  0  0  0  0  0  0  0  0  0  0
   -1.8984    0.9259   -0.0102 H   0  0  0  0  0  0  0  0  0  0  0  0
   -1.7713   -0.5917    0.8851 H   0  0  0  0  0  0  0  0  0  0  0  0
   -1.7737   -0.6113   -0.8721 H   0  0  0  0  0  0  0  0  0  0  0  0
    0.1685   -1.8156    0.0086 H   0  0  0  0  0  0  0  0  0  0  0  0
  1  3  1  0  0  0  0
  1  5  1  0  0  0  0
  1  6  1  0  0  0  0
  1  7  1  0  0  0  0
  2  3  1  0  0  0  0
  2  8  1  0  0  0  0
  3  4  2  0  0  0  0
M  END
> <QM Turbomole Final Opt. Energy (Har) HF/6-31G*>
-227.7979534909

> <QM Turbomole Opt. Runtime (sec) HF/6-31G*>
45.0

> <Original omega conformer number>
1

> <QM Turbomole Opt. Steps HF/6-31G*>
7

> <QM Turbomole Initial Opt. Energy (Har) HF/6-31G*>
-227.7895108145

$$$$
195
  -OEChem-04261723013D

  8  7  0     0  0  0  0  0  0999 V2000
   -1.4454   -0.0628    0.0017 C   0  0  0  0  0  0  0  0  0  0  0  0
    0.7483   -1.0551    0.0215 O   0  0  0  0  0  0  0  0  0  0  0  0
    0.0573    0.0916   -0.0031 C   0  0  0  0  0  0  0  0  0  0  0  0
    0.6193    1.1295   -0.0284 O   0  0  0  0  0  0  0  0  0  0  0  0
   -1.9060    0.9129   -0.0079 H   0  0  0  0  0  0  0  0  0  0  0  0
   -1.7630   -0.6071    0.8852 H   0  0  0  0  0  0  0  0  0  0  0  0
   -1.7721   -0.6205   -0.8715 H   0  0  0  0  0  0  0  0  0  0  0  0
    0.2048   -1.8034   -0.1874 H   0  0  0  0  0  0  0  0  0  0  0  0
  1  3  1  0  0  0  0
  1  5  1  0  0  0  0
  1  6  1  0  0  0  0
  1  7  1  0  0  0  0
  2  3  1  0  0  0  0
  2  8  1  0  0  0  0
  3  4  2  0  0  0  0
M  END
> <QM Turbomole Final Opt. Energy (Har) HF/6-31G*>
-227.7971588078

> <QM Turbomole Opt. Runtime (sec) HF/6-31G*>
64.0

> <Original omega conformer number>
1

> <QM Turbomole Opt. Steps HF/6-31G*>
10

> <QM Turbomole Initial Opt. Energy (Har) HF/6-31G*>
-227.7886417738

$$$$
210
  -OEChem-04261723013D

  8  7  0     0  0  0  0  0  0999 V2000
   -1.4440   -0.0883    0.0024 C   0  0  0  0  0  0  0  0  0  0  0  0
    0.7667   -1.0429    0.0345 O   0  0  0  0  0  0  0  0  0  0  0  0
    0.0547    0.0953   -0.0014 C   0  0  0  0  0  0  0  0  0  0  0  0
    0.5966    1.1431   -0.0343 O   0  0  0  0  0  0  0  0  0  0  0  0
   -1.9256    0.8773   -0.0175 H   0  0  0  0  0  0  0  0  0  0  0  0
   -1.7482   -0.6331    0.8898 H   0  0  0  0  0  0  0  0  0  0  0  0
   -1.7600   -0.6615   -0.8649 H   0  0  0  0  0  0  0  0  0  0  0  0
    0.3092   -1.7612   -0.3830 H   0  0  0  0  0  0  0  0  0  0  0  0
  1  3  1  0  0  0  0
  1  5  1  0  0  0  0
  1  6  1  0  0  0  0
  1  7  1  0  0  0  0
  2  3  1  0  0  0  0
  2  8  1  0  0  0  0
  3  4  2  0  0  0  0
M  END
> <QM Turbomole Final Opt. Energy (Har) HF/6-31G*>
-227.7949875844

> <QM Turbomole Opt. Runtime (sec) HF/6-31G*>
49.0

> <Original omega conformer number>
1

> <QM Turbomole Opt. Steps HF/6-31G*>
8

> <QM Turbomole Initial Opt. Energy (Har) HF/6-31G*>
-227.7862894330

$$$$
225
  -OEChem-04261723013D

  8  7  0     0  0  0  0  0  0999 V2000
   -1.4422   -0.1223    0.0011 C   0  0  0  0  0  0  0  0  0  0  0  0
    0.7889   -1.0283    0.0419 O   0  0  0  0  0  0  0  0  0  0  0  0
    0.0504    0.0997    0.0011 C   0  0  0  0  0  0  0  0  0  0  0  0
    0.5661    1.1600   -0.0259 O   0  0  0  0  0  0  0  0  0  0  0  0
   -1.9517    0.8285   -0.0380 H   0  0  0  0  0  0  0  0  0  0  0  0
   -1.7314   -0.6612    0.8966 H   0  0  0  0  0  0  0  0  0  0  0  0
   -1.7387   -0.7224   -0.8546 H   0  0  0  0  0  0  0  0  0  0  0  0
    0.4669   -1.6838   -0.5640 H   0  0  0  0  0  0  0  0  0  0  0  0
  1  3  1  0  0  0  0
  1  5  1  0  0  0  0
  1  6  1  0  0  0  0
  1  7  1  0  0  0  0
  2  3  1  0  0  0  0
  2  8  1  0  0  0  0
  3  4  2  0  0  0  0
M  END
> <QM Turbomole Final Opt. Energy (Har) HF/6-31G*>
-227.7920586676

> <QM Turbomole Opt. Runtime (sec) HF/6-31G*>
48.0

> <Original omega conformer number>
1

> <QM Turbomole Opt. Steps HF/6-31G*>
8

> <QM Turbomole Initial Opt. Energy (Har) HF/6-31G*>
-227.7830765455

$$$$
240
  -OEChem-04261723013D

  8  7  0     0  0  0  0  0  0999 V2000
   -1.4401   -0.1568   -0.0031 C   0  0  0  0  0  0  0  0  0  0  0  0
    0.8080   -1.0149    0.0465 O   0  0  0  0  0  0  0  0  0  0  0  0
    0.0446    0.1041    0.0015 C   0  0  0  0  0  0  0  0  0  0  0  0
    0.5345    1.1762   -0.0118 O   0  0  0  0  0  0  0  0  0  0  0  0
   -1.9782    0.7775   -0.0581 H   0  0  0  0  0  0  0  0  0  0  0  0
   -1.7148   -0.6916    0.8993 H   0  0  0  0  0  0  0  0  0  0  0  0
   -1.7134   -0.7821   -0.8481 H   0  0  0  0  0  0  0  0  0  0  0  0
    0.6608   -1.5725   -0.7079 H   0  0  0  0  0  0  0  0  0  0  0  0
  1  3  1  0  0  0  0
  1  5  1  0  0  0  0
  1  6  1  0  0  0  0
  1  7  1  0  0  0  0
  2  3  1  0  0  0  0
  2  8  1  0  0  0  0
  3  4  2  0  0  0  0
M  END
> <QM Turbomole Final Opt. Energy (Har) HF/6-31G*>
-227.7892399288

> <QM Turbomole Opt. Runtime (sec) HF/6-31G*>
48.0

> <Original omega conformer number>
1

> <QM Turbomole Opt. Steps HF/6-31G*>
8

> <QM Turbomole Initial Opt. Energy (Har) HF/6-31G*>
-227.7798444895

$$$$
255
  -OEChem-04261723013D

  8  7  0     0  0  0  0  0  0999 V2000
   -1.4390   -0.1839   -0.0095 C   0  0  0  0  0  0  0  0  0  0  0  0
    0.8184   -1.0043    0.0509 O   0  0  0  0  0  0  0  0  0  0  0  0
    0.0381    0.1088   -0.0037 C   0  0  0  0  0  0  0  0  0  0  0  0
    0.5077    1.1898   -0.0037 O   0  0  0  0  0  0  0  0  0  0  0  0
   -2.0004    0.7368   -0.0643 H   0  0  0  0  0  0  0  0  0  0  0  0
   -1.6990   -0.7259    0.8928 H   0  0  0  0  0  0  0  0  0  0  0  0
   -1.6931   -0.8191   -0.8525 H   0  0  0  0  0  0  0  0  0  0  0  0
    0.8700   -1.4395   -0.7920 H   0  0  0  0  0  0  0  0  0  0  0  0
  1  3  1  0  0  0  0
  1  5  1  0  0  0  0
  1  6  1  0  0  0  0
  1  7  1  0  0  0  0
  2  3  1  0  0  0  0
  2  8  1  0  0  0  0
  3  4  2  0  0  0  0
M  END
> <QM Turbomole Final Opt. Energy (Har) HF/6-31G*>
-227.7874928874

> <QM Turbomole Opt. Runtime (sec) HF/6-31G*>
49.0

> <Original omega conformer number>
1

> <QM Turbomole Opt. Steps HF/6-31G*>
8

> <QM Turbomole Initial Opt. Energy (Har) HF/6-31G*>
-227.7776818245

$$$$
270
  -OEChem-04261723013D

  8  7  0     0  0  0  0  0  0999 V2000
   -1.4388   -0.2012   -0.0166 C   0  0  0  0  0  0  0  0  0  0  0  0
    0.8193   -0.9959    0.0549 O   0  0  0  0  0  0  0  0  0  0  0  0
    0.0321    0.1137   -0.0148 C   0  0  0  0  0  0  0  0  0  0  0  0
    0.4883    1.2009   -0.0059 O   0  0  0  0  0  0  0  0  0  0  0  0
   -2.0160    0.7107   -0.0539 H   0  0  0  0  0  0  0  0  0  0  0  0
   -1.6836   -0.7617    0.8787 H   0  0  0  0  0  0  0  0  0  0  0  0
   -1.6833   -0.8297   -0.8668 H   0  0  0  0  0  0  0  0  0  0  0  0
    1.0783   -1.2981   -0.8079 H   0  0  0  0  0  0  0  0  0  0  0  0
  1  3  1  0  0  0  0
  1  5  1  0  0  0  0
  1  6  1  0  0  0  0
  1  7  1  0  0  0  0
  2  3  1  0  0  0  0
  2  8  1  0  0  0  0
  3  4  2  0  0  0  0
M  END
> <QM Turbomole Final Opt. Energy (Har) HF/6-31G*>
-227.7875766146

> <QM Turbomole Opt. Runtime (sec) HF/6-31G*>
70.0

> <Original omega conformer number>
1

> <QM Turbomole Opt. Steps HF/6-31G*>
8

> <QM Turbomole Initial Opt. Energy (Har) HF/6-31G*>
-227.7773478451

$$$$
285
  -OEChem-04261723013D

  8  7  0     0  0  0  0  0  0999 V2000
   -1.4390   -0.2096   -0.0225 C   0  0  0  0  0  0  0  0  0  0  0  0
    0.8124   -0.9896    0.0569 O   0  0  0  0  0  0  0  0  0  0  0  0
    0.0280    0.1179   -0.0281 C   0  0  0  0  0  0  0  0  0  0  0  0
    0.4778    1.2089   -0.0143 O   0  0  0  0  0  0  0  0  0  0  0  0
   -2.0237    0.6982   -0.0356 H   0  0  0  0  0  0  0  0  0  0  0  0
   -1.6706   -0.7906    0.8632 H   0  0  0  0  0  0  0  0  0  0  0  0
   -1.6829   -0.8232   -0.8832 H   0  0  0  0  0  0  0  0  0  0  0  0
    1.2677   -1.1581   -0.7601 H   0  0  0  0  0  0  0  0  0  0  0  0
  1  3  1  0  0  0  0
  1  5  1  0  0  0  0
  1  6  1  0  0  0  0
  1  7  1  0  0  0  0
  2  3  1  0  0  0  0
  2  8  1  0  0  0  0
  3  4  2  0  0  0  0
M  END
> <QM Turbomole Final Opt. Energy (Har) HF/6-31G*>
-227.7898278216

> <QM Turbomole Opt. Runtime (sec) HF/6-31G*>
50.0

> <Original omega conformer number>
1

> <QM Turbomole Opt. Steps HF/6-31G*>
8

> <QM Turbomole Initial Opt. Energy (Har) HF/6-31G*>
-227.7793056162

$$$$
300
  -OEChem-04261723013D

  8  7  0     0  0  0  0  0  0999 V2000
   -1.4389   -0.2114   -0.0252 C   0  0  0  0  0  0  0  0  0  0  0  0
    0.8014   -0.9857    0.0576 O   0  0  0  0  0  0  0  0  0  0  0  0
    0.0264    0.1202   -0.0385 C   0  0  0  0  0  0  0  0  0  0  0  0
    0.4764    1.2129   -0.0266 O   0  0  0  0  0  0  0  0  0  0  0  0
   -2.0242    0.6959   -0.0165 H   0  0  0  0  0  0  0  0  0  0  0  0
   -1.6623   -0.8093    0.8513 H   0  0  0  0  0  0  0  0  0  0  0  0
   -1.6874   -0.8086   -0.8957 H   0  0  0  0  0  0  0  0  0  0  0  0
    1.4256   -1.0271   -0.6582 H   0  0  0  0  0  0  0  0  0  0  0  0
  1  3  1  0  0  0  0
  1  5  1  0  0  0  0
  1  6  1  0  0  0  0
  1  7  1  0  0  0  0
  2  3  1  0  0  0  0
  2  8  1  0  0  0  0
  3  4  2  0  0  0  0
M  END
> <QM Turbomole Final Opt. Energy (Har) HF/6-31G*>
-227.7939902635

> <QM Turbomole Opt. Runtime (sec) HF/6-31G*>
76.0

> <Original omega conformer number>
1

> <QM Turbomole Opt. Steps HF/6-31G*>
9

> <QM Turbomole Initial Opt. Energy (Har) HF/6-31G*>
-227.7835146299

$$$$
315
  -OEChem-04261723013D

  8  7  0     0  0  0  0  0  0999 V2000
   -1.4384   -0.2096   -0.0236 C   0  0  0  0  0  0  0  0  0  0  0  0
    0.7907   -0.9838    0.0589 O   0  0  0  0  0  0  0  0  0  0  0  0
    0.0269    0.1199   -0.0426 C   0  0  0  0  0  0  0  0  0  0  0  0
    0.4825    1.2125   -0.0434 O   0  0  0  0  0  0  0  0  0  0  0  0
   -2.0194    0.7000    0.0019 H   0  0  0  0  0  0  0  0  0  0  0  0
   -1.6597   -0.8197    0.8447 H   0  0  0  0  0  0  0  0  0  0  0  0
   -1.6930   -0.7909   -0.9028 H   0  0  0  0  0  0  0  0  0  0  0  0
    1.5456   -0.9131   -0.5155 H   0  0  0  0  0  0  0  0  0  0  0  0
  1  3  1  0  0  0  0
  1  5  1  0  0  0  0
  1  6  1  0  0  0  0
  1  7  1  0  0  0  0
  2  3  1  0  0  0  0
  2  8  1  0  0  0  0
  3  4  2  0  0  0  0
M  END
> <QM Turbomole Final Opt. Energy (Har) HF/6-31G*>
-227.7992070184

> <QM Turbomole Opt. Runtime (sec) HF/6-31G*>
75.0

> <Original omega conformer number>
1

> <QM Turbomole Opt. Steps HF/6-31G*>
12

> <QM Turbomole Initial Opt. Energy (Har) HF/6-31G*>
-227.7888494505

$$$$
330
  -OEChem-04261723013D

  8  7  0     0  0  0  0  0  0999 V2000
   -1.4381   -0.2063   -0.0180 C   0  0  0  0  0  0  0  0  0  0  0  0
    0.7818   -0.9863    0.0535 O   0  0  0  0  0  0  0  0  0  0  0  0
    0.0284    0.1167   -0.0371 C   0  0  0  0  0  0  0  0  0  0  0  0
    0.4934    1.2071   -0.0494 O   0  0  0  0  0  0  0  0  0  0  0  0
   -2.0125    0.7073    0.0089 H   0  0  0  0  0  0  0  0  0  0  0  0
   -1.6644   -0.8165    0.8488 H   0  0  0  0  0  0  0  0  0  0  0  0
   -1.6954   -0.7826   -0.8996 H   0  0  0  0  0  0  0  0  0  0  0  0
    1.6278   -0.8203   -0.3501 H   0  0  0  0  0  0  0  0  0  0  0  0
  1  3  1  0  0  0  0
  1  5  1  0  0  0  0
  1  6  1  0  0  0  0
  1  7  1  0  0  0  0
  2  3  1  0  0  0  0
  2  8  1  0  0  0  0
  3  4  2  0  0  0  0
M  END
> <QM Turbomole Final Opt. Energy (Har) HF/6-31G*>
-227.8042807977

> <QM Turbomole Opt. Runtime (sec) HF/6-31G*>
64.0

> <Original omega conformer number>
1

> <QM Turbomole Opt. Steps HF/6-31G*>
10

> <QM Turbomole Initial Opt. Energy (Har) HF/6-31G*>
-227.7942413317

$$$$
345
  -OEChem-04261723013D

  8  7  0     0  0  0  0  0  0999 V2000
   -1.4380   -0.2035   -0.0091 C   0  0  0  0  0  0  0  0  0  0  0  0
    0.7760   -0.9909    0.0397 O   0  0  0  0  0  0  0  0  0  0  0  0
    0.0299    0.1128   -0.0231 C   0  0  0  0  0  0  0  0  0  0  0  0
    0.5037    1.2007   -0.0434 O   0  0  0  0  0  0  0  0  0  0  0  0
   -2.0064    0.7141    0.0073 H   0  0  0  0  0  0  0  0  0  0  0  0
   -1.6736   -0.8050    0.8611 H   0  0  0  0  0  0  0  0  0  0  0  0
   -1.6934   -0.7838   -0.8883 H   0  0  0  0  0  0  0  0  0  0  0  0
    1.6750   -0.7574   -0.1718 H   0  0  0  0  0  0  0  0  0  0  0  0
  1  3  1  0  0  0  0
  1  5  1  0  0  0  0
  1  6  1  0  0  0  0
  1  7  1  0  0  0  0
  2  3  1  0  0  0  0
  2  8  1  0  0  0  0
  3  4  2  0  0  0  0
M  END
> <QM Turbomole Final Opt. Energy (Har) HF/6-31G*>
-227.8079788923

> <QM Turbomole Opt. Runtime (sec) HF/6-31G*>
79.0

> <Original omega conformer number>
1

> <QM Turbomole Opt. Steps HF/6-31G*>
13

> <QM Turbomole Initial Opt. Energy (Har) HF/6-31G*>
-227.7982334697

$$$$
