0
  -OEChem-04261723273D

  8  7  0     0  0  0  0  0  0999 V2000
   -1.4424   -0.2017    0.0015 C   0  0  0  0  0  0  0  0  0  0  0  0
    0.7776   -1.0173    0.0214 O   0  0  0  0  0  0  0  0  0  0  0  0
    0.0264    0.1151   -0.0048 C   0  0  0  0  0  0  0  0  0  0  0  0
    0.5186    1.2160   -0.0310 O   0  0  0  0  0  0  0  0  0  0  0  0
   -2.0126    0.7235    0.0022 H   0  0  0  0  0  0  0  0  0  0  0  0
   -1.6890   -0.7985    0.8819 H   0  0  0  0  0  0  0  0  0  0  0  0
   -1.6937   -0.7971   -0.8788 H   0  0  0  0  0  0  0  0  0  0  0  0
    1.7061   -0.7295    0.0136 H   0  0  0  0  0  0  0  0  0  0  0  0
  1  3  1  0  0  0  0
  1  5  1  0  0  0  0
  1  6  1  0  0  0  0
  1  7  1  0  0  0  0
  2  3  1  0  0  0  0
  2  8  1  0  0  0  0
  3  4  2  0  0  0  0
M  END
> <QM Turbomole Final Opt. Energy (Har) TPSSh/def2-TZVP>
-229.1918349982

> <QM Turbomole Opt. Runtime (sec) TPSSh/def2-TZVP>
345.0

> <Original omega conformer number>
1

> <QM Turbomole Opt. Steps TPSSh/def2-TZVP>
15

> <QM Turbomole Initial Opt. Energy (Har) TPSSh/def2-TZVP>
-229.1853959173

$$$$
15
  -OEChem-04261723273D

  8  7  0     0  0  0  0  0  0999 V2000
   -1.4424   -0.2026    0.0108 C   0  0  0  0  0  0  0  0  0  0  0  0
    0.7789   -1.0152   -0.0304 O   0  0  0  0  0  0  0  0  0  0  0  0
    0.0255    0.1171    0.0233 C   0  0  0  0  0  0  0  0  0  0  0  0
    0.5139    1.2196    0.0271 O   0  0  0  0  0  0  0  0  0  0  0  0
   -2.0149    0.7201   -0.0369 H   0  0  0  0  0  0  0  0  0  0  0  0
   -1.7047   -0.7609    0.9120 H   0  0  0  0  0  0  0  0  0  0  0  0
   -1.6750   -0.8378   -0.8462 H   0  0  0  0  0  0  0  0  0  0  0  0
    1.6907   -0.7536    0.1800 H   0  0  0  0  0  0  0  0  0  0  0  0
  1  3  1  0  0  0  0
  1  5  1  0  0  0  0
  1  6  1  0  0  0  0
  1  7  1  0  0  0  0
  2  3  1  0  0  0  0
  2  8  1  0  0  0  0
  3  4  2  0  0  0  0
M  END
> <QM Turbomole Final Opt. Energy (Har) TPSSh/def2-TZVP>
-229.1905861427

> <QM Turbomole Opt. Runtime (sec) TPSSh/def2-TZVP>
203.0

> <Original omega conformer number>
1

> <QM Turbomole Opt. Steps TPSSh/def2-TZVP>
9

> <QM Turbomole Initial Opt. Energy (Har) TPSSh/def2-TZVP>
-229.1840550633

$$$$
30
  -OEChem-04261723273D

  8  7  0     0  0  0  0  0  0999 V2000
   -1.4425   -0.2046    0.0200 C   0  0  0  0  0  0  0  0  0  0  0  0
    0.7831   -1.0108   -0.0487 O   0  0  0  0  0  0  0  0  0  0  0  0
    0.0237    0.1221    0.0408 C   0  0  0  0  0  0  0  0  0  0  0  0
    0.5035    1.2269    0.0364 O   0  0  0  0  0  0  0  0  0  0  0  0
   -2.0222    0.7127   -0.0427 H   0  0  0  0  0  0  0  0  0  0  0  0
   -1.7085   -0.7568    0.9241 H   0  0  0  0  0  0  0  0  0  0  0  0
   -1.6614   -0.8521   -0.8317 H   0  0  0  0  0  0  0  0  0  0  0  0
    1.6437   -0.8186    0.3563 H   0  0  0  0  0  0  0  0  0  0  0  0
  1  3  1  0  0  0  0
  1  5  1  0  0  0  0
  1  6  1  0  0  0  0
  1  7  1  0  0  0  0
  2  3  1  0  0  0  0
  2  8  1  0  0  0  0
  3  4  2  0  0  0  0
M  END
> <QM Turbomole Final Opt. Energy (Har) TPSSh/def2-TZVP>
-229.1871308771

> <QM Turbomole Opt. Runtime (sec) TPSSh/def2-TZVP>
227.0

> <Original omega conformer number>
1

> <QM Turbomole Opt. Steps TPSSh/def2-TZVP>
10

> <QM Turbomole Initial Opt. Energy (Har) TPSSh/def2-TZVP>
-229.1801323687

$$$$
45
  -OEChem-04261723273D

  8  7  0     0  0  0  0  0  0999 V2000
   -1.4431   -0.2067    0.0260 C   0  0  0  0  0  0  0  0  0  0  0  0
    0.7905   -1.0081   -0.0579 O   0  0  0  0  0  0  0  0  0  0  0  0
    0.0216    0.1267    0.0499 C   0  0  0  0  0  0  0  0  0  0  0  0
    0.4919    1.2333    0.0331 O   0  0  0  0  0  0  0  0  0  0  0  0
   -2.0306    0.7057   -0.0401 H   0  0  0  0  0  0  0  0  0  0  0  0
   -1.7082   -0.7625    0.9283 H   0  0  0  0  0  0  0  0  0  0  0  0
   -1.6524   -0.8577   -0.8257 H   0  0  0  0  0  0  0  0  0  0  0  0
    1.5625   -0.9154    0.5204 H   0  0  0  0  0  0  0  0  0  0  0  0
  1  3  1  0  0  0  0
  1  5  1  0  0  0  0
  1  6  1  0  0  0  0
  1  7  1  0  0  0  0
  2  3  1  0  0  0  0
  2  8  1  0  0  0  0
  3  4  2  0  0  0  0
M  END
> <QM Turbomole Final Opt. Energy (Har) TPSSh/def2-TZVP>
-229.1822828292

> <QM Turbomole Opt. Runtime (sec) TPSSh/def2-TZVP>
227.0

> <Original omega conformer number>
1

> <QM Turbomole Opt. Steps TPSSh/def2-TZVP>
10

> <QM Turbomole Initial Opt. Energy (Har) TPSSh/def2-TZVP>
-229.1748053195

$$$$
60
  -OEChem-04261723273D

  8  7  0     0  0  0  0  0  0999 V2000
   -1.4440   -0.2073    0.0278 C   0  0  0  0  0  0  0  0  0  0  0  0
    0.8007   -1.0094   -0.0594 O   0  0  0  0  0  0  0  0  0  0  0  0
    0.0202    0.1281    0.0484 C   0  0  0  0  0  0  0  0  0  0  0  0
    0.4854    1.2341    0.0177 O   0  0  0  0  0  0  0  0  0  0  0  0
   -2.0373    0.7024   -0.0247 H   0  0  0  0  0  0  0  0  0  0  0  0
   -1.7036   -0.7786    0.9223 H   0  0  0  0  0  0  0  0  0  0  0  0
   -1.6518   -0.8490   -0.8316 H   0  0  0  0  0  0  0  0  0  0  0  0
    1.4440   -1.0332    0.6631 H   0  0  0  0  0  0  0  0  0  0  0  0
  1  3  1  0  0  0  0
  1  5  1  0  0  0  0
  1  6  1  0  0  0  0
  1  7  1  0  0  0  0
  2  3  1  0  0  0  0
  2  8  1  0  0  0  0
  3  4  2  0  0  0  0
M  END
> <QM Turbomole Final Opt. Energy (Har) TPSSh/def2-TZVP>
-229.1771582542

> <QM Turbomole Opt. Runtime (sec) TPSSh/def2-TZVP>
227.0

> <Original omega conformer number>
1

> <QM Turbomole Opt. Steps TPSSh/def2-TZVP>
10

> <QM Turbomole Initial Opt. Energy (Har) TPSSh/def2-TZVP>
-229.1693417603

$$$$
75
  -OEChem-04261723273D

  8  7  0     0  0  0  0  0  0999 V2000
   -1.4449   -0.2044    0.0251 C   0  0  0  0  0  0  0  0  0  0  0  0
    0.8124   -1.0138   -0.0576 O   0  0  0  0  0  0  0  0  0  0  0  0
    0.0210    0.1256    0.0366 C   0  0  0  0  0  0  0  0  0  0  0  0
    0.4875    1.2286   -0.0012 O   0  0  0  0  0  0  0  0  0  0  0  0
   -2.0384    0.7066    0.0000 H   0  0  0  0  0  0  0  0  0  0  0  0
   -1.6973   -0.7981    0.9072 H   0  0  0  0  0  0  0  0  0  0  0  0
   -1.6617   -0.8251   -0.8475 H   0  0  0  0  0  0  0  0  0  0  0  0
    1.2874   -1.1647    0.7708 H   0  0  0  0  0  0  0  0  0  0  0  0
  1  3  1  0  0  0  0
  1  5  1  0  0  0  0
  1  6  1  0  0  0  0
  1  7  1  0  0  0  0
  2  3  1  0  0  0  0
  2  8  1  0  0  0  0
  3  4  2  0  0  0  0
M  END
> <QM Turbomole Final Opt. Energy (Har) TPSSh/def2-TZVP>
-229.1729672099

> <QM Turbomole Opt. Runtime (sec) TPSSh/def2-TZVP>
227.0

> <Original omega conformer number>
1

> <QM Turbomole Opt. Steps TPSSh/def2-TZVP>
10

> <QM Turbomole Initial Opt. Energy (Har) TPSSh/def2-TZVP>
-229.1652319510

$$$$
90
  -OEChem-04261723273D

  8  7  0     0  0  0  0  0  0999 V2000
   -1.4450   -0.1958    0.0186 C   0  0  0  0  0  0  0  0  0  0  0  0
    0.8228   -1.0194   -0.0548 O   0  0  0  0  0  0  0  0  0  0  0  0
    0.0249    0.1206    0.0183 C   0  0  0  0  0  0  0  0  0  0  0  0
    0.4997    1.2187   -0.0148 O   0  0  0  0  0  0  0  0  0  0  0  0
   -2.0311    0.7205    0.0264 H   0  0  0  0  0  0  0  0  0  0  0  0
   -1.6934   -0.8106    0.8877 H   0  0  0  0  0  0  0  0  0  0  0  0
   -1.6798   -0.7900   -0.8677 H   0  0  0  0  0  0  0  0  0  0  0  0
    1.0938   -1.3045    0.8280 H   0  0  0  0  0  0  0  0  0  0  0  0
  1  3  1  0  0  0  0
  1  5  1  0  0  0  0
  1  6  1  0  0  0  0
  1  7  1  0  0  0  0
  2  3  1  0  0  0  0
  2  8  1  0  0  0  0
  3  4  2  0  0  0  0
M  END
> <QM Turbomole Final Opt. Energy (Har) TPSSh/def2-TZVP>
-229.1707319506

> <QM Turbomole Opt. Runtime (sec) TPSSh/def2-TZVP>
302.0

> <Original omega conformer number>
1

> <QM Turbomole Opt. Steps TPSSh/def2-TZVP>
13

> <QM Turbomole Initial Opt. Energy (Har) TPSSh/def2-TZVP>
-229.1634619361

$$$$
105
  -OEChem-04261723273D

  8  7  0     0  0  0  0  0  0999 V2000
   -1.4445   -0.1794    0.0105 C   0  0  0  0  0  0  0  0  0  0  0  0
    0.8265   -1.0263   -0.0480 O   0  0  0  0  0  0  0  0  0  0  0  0
    0.0319    0.1144   -0.0006 C   0  0  0  0  0  0  0  0  0  0  0  0
    0.5210    1.2061   -0.0238 O   0  0  0  0  0  0  0  0  0  0  0  0
   -2.0139    0.7466    0.0490 H   0  0  0  0  0  0  0  0  0  0  0  0
   -1.6970   -0.8093    0.8678 H   0  0  0  0  0  0  0  0  0  0  0  0
   -1.7024   -0.7451   -0.8878 H   0  0  0  0  0  0  0  0  0  0  0  0
    0.8769   -1.4422    0.8232 H   0  0  0  0  0  0  0  0  0  0  0  0
  1  3  1  0  0  0  0
  1  5  1  0  0  0  0
  1  6  1  0  0  0  0
  1  7  1  0  0  0  0
  2  3  1  0  0  0  0
  2  8  1  0  0  0  0
  3  4  2  0  0  0  0
M  END
> <QM Turbomole Final Opt. Energy (Har) TPSSh/def2-TZVP>
-229.1709929266

> <QM Turbomole Opt. Runtime (sec) TPSSh/def2-TZVP>
400.0

> <Original omega conformer number>
1

> <QM Turbomole Opt. Steps TPSSh/def2-TZVP>
18

> <QM Turbomole Initial Opt. Energy (Har) TPSSh/def2-TZVP>
-229.1644704279

$$$$
120
  -OEChem-04261723273D

  8  7  0     0  0  0  0  0  0999 V2000
   -1.4444   -0.1536    0.0027 C   0  0  0  0  0  0  0  0  0  0  0  0
    0.8196   -1.0340   -0.0433 O   0  0  0  0  0  0  0  0  0  0  0  0
    0.0400    0.1103   -0.0103 C   0  0  0  0  0  0  0  0  0  0  0  0
    0.5495    1.1932   -0.0141 O   0  0  0  0  0  0  0  0  0  0  0  0
   -1.9903    0.7860    0.0460 H   0  0  0  0  0  0  0  0  0  0  0  0
   -1.7127   -0.7744    0.8626 H   0  0  0  0  0  0  0  0  0  0  0  0
   -1.7215   -0.7097   -0.8957 H   0  0  0  0  0  0  0  0  0  0  0  0
    0.6564   -1.5750    0.7414 H   0  0  0  0  0  0  0  0  0  0  0  0
  1  3  1  0  0  0  0
  1  5  1  0  0  0  0
  1  6  1  0  0  0  0
  1  7  1  0  0  0  0
  2  3  1  0  0  0  0
  2  8  1  0  0  0  0
  3  4  2  0  0  0  0
M  END
> <QM Turbomole Final Opt. Energy (Har) TPSSh/def2-TZVP>
-229.1733875808

> <QM Turbomole Opt. Runtime (sec) TPSSh/def2-TZVP>
252.0

> <Original omega conformer number>
1

> <QM Turbomole Opt. Steps TPSSh/def2-TZVP>
11

> <QM Turbomole Initial Opt. Energy (Har) TPSSh/def2-TZVP>
-229.1675493367

$$$$
135
  -OEChem-04261723273D

  8  7  0     0  0  0  0  0  0999 V2000
   -1.4452   -0.1210   -0.0025 C   0  0  0  0  0  0  0  0  0  0  0  0
    0.8027   -1.0455   -0.0335 O   0  0  0  0  0  0  0  0  0  0  0  0
    0.0473    0.1059   -0.0136 C   0  0  0  0  0  0  0  0  0  0  0  0
    0.5821    1.1776   -0.0084 O   0  0  0  0  0  0  0  0  0  0  0  0
   -1.9624    0.8346    0.0370 H   0  0  0  0  0  0  0  0  0  0  0  0
   -1.7339   -0.7256    0.8628 H   0  0  0  0  0  0  0  0  0  0  0  0
   -1.7409   -0.6705   -0.8990 H   0  0  0  0  0  0  0  0  0  0  0  0
    0.4557   -1.6830    0.6059 H   0  0  0  0  0  0  0  0  0  0  0  0
  1  3  1  0  0  0  0
  1  5  1  0  0  0  0
  1  6  1  0  0  0  0
  1  7  1  0  0  0  0
  2  3  1  0  0  0  0
  2  8  1  0  0  0  0
  3  4  2  0  0  0  0
M  END
> <QM Turbomole Final Opt. Energy (Har) TPSSh/def2-TZVP>
-229.1768715443

> <QM Turbomole Opt. Runtime (sec) TPSSh/def2-TZVP>
203.0

> <Original omega conformer number>
1

> <QM Turbomole Opt. Steps TPSSh/def2-TZVP>
9

> <QM Turbomole Initial Opt. Energy (Har) TPSSh/def2-TZVP>
-229.1717003473

$$$$
150
  -OEChem-04261723273D

  8  7  0     0  0  0  0  0  0999 V2000
   -1.4466   -0.0880   -0.0043 C   0  0  0  0  0  0  0  0  0  0  0  0
    0.7818   -1.0586   -0.0204 O   0  0  0  0  0  0  0  0  0  0  0  0
    0.0528    0.1022   -0.0121 C   0  0  0  0  0  0  0  0  0  0  0  0
    0.6135    1.1613   -0.0090 O   0  0  0  0  0  0  0  0  0  0  0  0
   -1.9359    0.8823    0.0259 H   0  0  0  0  0  0  0  0  0  0  0  0
   -1.7544   -0.6741    0.8672 H   0  0  0  0  0  0  0  0  0  0  0  0
   -1.7584   -0.6332   -0.8983 H   0  0  0  0  0  0  0  0  0  0  0  0
    0.2937   -1.7609    0.4322 H   0  0  0  0  0  0  0  0  0  0  0  0
  1  3  1  0  0  0  0
  1  5  1  0  0  0  0
  1  6  1  0  0  0  0
  1  7  1  0  0  0  0
  2  3  1  0  0  0  0
  2  8  1  0  0  0  0
  3  4  2  0  0  0  0
M  END
> <QM Turbomole Final Opt. Energy (Har) TPSSh/def2-TZVP>
-229.1802731613

> <QM Turbomole Opt. Runtime (sec) TPSSh/def2-TZVP>
178.0

> <Original omega conformer number>
1

> <QM Turbomole Opt. Steps TPSSh/def2-TZVP>
8

> <QM Turbomole Initial Opt. Energy (Har) TPSSh/def2-TZVP>
-229.1755128750

$$$$
165
  -OEChem-04261723273D

  8  7  0     0  0  0  0  0  0999 V2000
   -1.4475   -0.0635   -0.0031 C   0  0  0  0  0  0  0  0  0  0  0  0
    0.7655   -1.0681   -0.0080 O   0  0  0  0  0  0  0  0  0  0  0  0
    0.0561    0.0998   -0.0079 C   0  0  0  0  0  0  0  0  0  0  0  0
    0.6358    1.1492   -0.0102 O   0  0  0  0  0  0  0  0  0  0  0  0
   -1.9168    0.9169    0.0100 H   0  0  0  0  0  0  0  0  0  0  0  0
   -1.7682   -0.6286    0.8773 H   0  0  0  0  0  0  0  0  0  0  0  0
   -1.7703   -0.6129   -0.8912 H   0  0  0  0  0  0  0  0  0  0  0  0
    0.1880   -1.8077    0.2291 H   0  0  0  0  0  0  0  0  0  0  0  0
  1  3  1  0  0  0  0
  1  5  1  0  0  0  0
  1  6  1  0  0  0  0
  1  7  1  0  0  0  0
  2  3  1  0  0  0  0
  2  8  1  0  0  0  0
  3  4  2  0  0  0  0
M  END
> <QM Turbomole Final Opt. Energy (Har) TPSSh/def2-TZVP>
-229.1826520580

> <QM Turbomole Opt. Runtime (sec) TPSSh/def2-TZVP>
179.0

> <Original omega conformer number>
1

> <QM Turbomole Opt. Steps TPSSh/def2-TZVP>
8

> <QM Turbomole Initial Opt. Energy (Har) TPSSh/def2-TZVP>
-229.1781544178

$$$$
180
  -OEChem-04261723273D

  8  7  0     0  0  0  0  0  0999 V2000
   -1.4479   -0.0543   -0.0000 C   0  0  0  0  0  0  0  0  0  0  0  0
    0.7595   -1.0711    0.0023 O   0  0  0  0  0  0  0  0  0  0  0  0
    0.0571    0.0992   -0.0019 C   0  0  0  0  0  0  0  0  0  0  0  0
    0.6436    1.1450   -0.0055 O   0  0  0  0  0  0  0  0  0  0  0  0
   -1.9097    0.9296   -0.0143 H   0  0  0  0  0  0  0  0  0  0  0  0
   -1.7731   -0.5946    0.8935 H   0  0  0  0  0  0  0  0  0  0  0  0
   -1.7748   -0.6219   -0.8758 H   0  0  0  0  0  0  0  0  0  0  0  0
    0.1515   -1.8242    0.0047 H   0  0  0  0  0  0  0  0  0  0  0  0
  1  3  1  0  0  0  0
  1  5  1  0  0  0  0
  1  6  1  0  0  0  0
  1  7  1  0  0  0  0
  2  3  1  0  0  0  0
  2  8  1  0  0  0  0
  3  4  2  0  0  0  0
M  END
> <QM Turbomole Final Opt. Energy (Har) TPSSh/def2-TZVP>
-229.1834921050

> <QM Turbomole Opt. Runtime (sec) TPSSh/def2-TZVP>
178.0

> <Original omega conformer number>
1

> <QM Turbomole Opt. Steps TPSSh/def2-TZVP>
8

> <QM Turbomole Initial Opt. Energy (Har) TPSSh/def2-TZVP>
-229.1791172287

$$$$
195
  -OEChem-04261723273D

  8  7  0     0  0  0  0  0  0999 V2000
   -1.4474   -0.0635    0.0030 C   0  0  0  0  0  0  0  0  0  0  0  0
    0.7658   -1.0674    0.0132 O   0  0  0  0  0  0  0  0  0  0  0  0
    0.0561    0.1002    0.0038 C   0  0  0  0  0  0  0  0  0  0  0  0
    0.6355    1.1498   -0.0022 O   0  0  0  0  0  0  0  0  0  0  0  0
   -1.9171    0.9160   -0.0370 H   0  0  0  0  0  0  0  0  0  0  0  0
   -1.7684   -0.5869    0.9074 H   0  0  0  0  0  0  0  0  0  0  0  0
   -1.7697   -0.6542   -0.8598 H   0  0  0  0  0  0  0  0  0  0  0  0
    0.1885   -1.8088   -0.2182 H   0  0  0  0  0  0  0  0  0  0  0  0
  1  3  1  0  0  0  0
  1  5  1  0  0  0  0
  1  6  1  0  0  0  0
  1  7  1  0  0  0  0
  2  3  1  0  0  0  0
  2  8  1  0  0  0  0
  3  4  2  0  0  0  0
M  END
> <QM Turbomole Final Opt. Energy (Har) TPSSh/def2-TZVP>
-229.1826527009

> <QM Turbomole Opt. Runtime (sec) TPSSh/def2-TZVP>
227.0

> <Original omega conformer number>
1

> <QM Turbomole Opt. Steps TPSSh/def2-TZVP>
10

> <QM Turbomole Initial Opt. Energy (Har) TPSSh/def2-TZVP>
-229.1781809307

$$$$
210
  -OEChem-04261723273D

  8  7  0     0  0  0  0  0  0999 V2000
   -1.4463   -0.0885    0.0041 C   0  0  0  0  0  0  0  0  0  0  0  0
    0.7828   -1.0570    0.0267 O   0  0  0  0  0  0  0  0  0  0  0  0
    0.0529    0.1030    0.0077 C   0  0  0  0  0  0  0  0  0  0  0  0
    0.6127    1.1626   -0.0051 O   0  0  0  0  0  0  0  0  0  0  0  0
   -1.9367    0.8802   -0.0512 H   0  0  0  0  0  0  0  0  0  0  0  0
   -1.7562   -0.6093    0.9132 H   0  0  0  0  0  0  0  0  0  0  0  0
   -1.7549   -0.6988   -0.8502 H   0  0  0  0  0  0  0  0  0  0  0  0
    0.2950   -1.7634   -0.4198 H   0  0  0  0  0  0  0  0  0  0  0  0
  1  3  1  0  0  0  0
  1  5  1  0  0  0  0
  1  6  1  0  0  0  0
  1  7  1  0  0  0  0
  2  3  1  0  0  0  0
  2  8  1  0  0  0  0
  3  4  2  0  0  0  0
M  END
> <QM Turbomole Final Opt. Energy (Har) TPSSh/def2-TZVP>
-229.1802731091

> <QM Turbomole Opt. Runtime (sec) TPSSh/def2-TZVP>
252.0

> <Original omega conformer number>
1

> <QM Turbomole Opt. Steps TPSSh/def2-TZVP>
11

> <QM Turbomole Initial Opt. Energy (Har) TPSSh/def2-TZVP>
-229.1755244177

$$$$
225
  -OEChem-04261723273D

  8  7  0     0  0  0  0  0  0999 V2000
   -1.4449   -0.1214    0.0022 C   0  0  0  0  0  0  0  0  0  0  0  0
    0.8039   -1.0434    0.0398 O   0  0  0  0  0  0  0  0  0  0  0  0
    0.0474    0.1073    0.0091 C   0  0  0  0  0  0  0  0  0  0  0  0
    0.5813    1.1793   -0.0056 O   0  0  0  0  0  0  0  0  0  0  0  0
   -1.9634    0.8322   -0.0623 H   0  0  0  0  0  0  0  0  0  0  0  0
   -1.7395   -0.6462    0.9140 H   0  0  0  0  0  0  0  0  0  0  0  0
   -1.7336   -0.7503   -0.8454 H   0  0  0  0  0  0  0  0  0  0  0  0
    0.4570   -1.6871   -0.5936 H   0  0  0  0  0  0  0  0  0  0  0  0
  1  3  1  0  0  0  0
  1  5  1  0  0  0  0
  1  6  1  0  0  0  0
  1  7  1  0  0  0  0
  2  3  1  0  0  0  0
  2  8  1  0  0  0  0
  3  4  2  0  0  0  0
M  END
> <QM Turbomole Final Opt. Energy (Har) TPSSh/def2-TZVP>
-229.1768820201

> <QM Turbomole Opt. Runtime (sec) TPSSh/def2-TZVP>
252.0

> <Original omega conformer number>
1

> <QM Turbomole Opt. Steps TPSSh/def2-TZVP>
11

> <QM Turbomole Initial Opt. Energy (Har) TPSSh/def2-TZVP>
-229.1716891126

$$$$
240
  -OEChem-04261723273D

  8  7  0     0  0  0  0  0  0999 V2000
   -1.4439   -0.1543   -0.0028 C   0  0  0  0  0  0  0  0  0  0  0  0
    0.8214   -1.0307    0.0512 O   0  0  0  0  0  0  0  0  0  0  0  0
    0.0400    0.1118    0.0056 C   0  0  0  0  0  0  0  0  0  0  0  0
    0.5478    1.1956   -0.0023 O   0  0  0  0  0  0  0  0  0  0  0  0
   -1.9912    0.7831   -0.0692 H   0  0  0  0  0  0  0  0  0  0  0  0
   -1.7203   -0.6877    0.9096 H   0  0  0  0  0  0  0  0  0  0  0  0
   -1.7114   -0.7975   -0.8462 H   0  0  0  0  0  0  0  0  0  0  0  0
    0.6591   -1.5803   -0.7276 H   0  0  0  0  0  0  0  0  0  0  0  0
  1  3  1  0  0  0  0
  1  5  1  0  0  0  0
  1  6  1  0  0  0  0
  1  7  1  0  0  0  0
  2  3  1  0  0  0  0
  2  8  1  0  0  0  0
  3  4  2  0  0  0  0
M  END
> <QM Turbomole Final Opt. Energy (Har) TPSSh/def2-TZVP>
-229.1733883938

> <QM Turbomole Opt. Runtime (sec) TPSSh/def2-TZVP>
277.0

> <Original omega conformer number>
1

> <QM Turbomole Opt. Steps TPSSh/def2-TZVP>
12

> <QM Turbomole Initial Opt. Energy (Har) TPSSh/def2-TZVP>
-229.1675787895

$$$$
255
  -OEChem-04261723273D

  8  7  0     0  0  0  0  0  0999 V2000
   -1.4442   -0.1798   -0.0103 C   0  0  0  0  0  0  0  0  0  0  0  0
    0.8283   -1.0216    0.0595 O   0  0  0  0  0  0  0  0  0  0  0  0
    0.0316    0.1169   -0.0055 C   0  0  0  0  0  0  0  0  0  0  0  0
    0.5189    1.2096    0.0007 O   0  0  0  0  0  0  0  0  0  0  0  0
   -2.0154    0.7442   -0.0657 H   0  0  0  0  0  0  0  0  0  0  0  0
   -1.6999   -0.7286    0.8991 H   0  0  0  0  0  0  0  0  0  0  0  0
   -1.6962   -0.8266   -0.8551 H   0  0  0  0  0  0  0  0  0  0  0  0
    0.8795   -1.4512   -0.8048 H   0  0  0  0  0  0  0  0  0  0  0  0
  1  3  1  0  0  0  0
  1  5  1  0  0  0  0
  1  6  1  0  0  0  0
  1  7  1  0  0  0  0
  2  3  1  0  0  0  0
  2  8  1  0  0  0  0
  3  4  2  0  0  0  0
M  END
> <QM Turbomole Final Opt. Energy (Har) TPSSh/def2-TZVP>
-229.1709943688

> <QM Turbomole Opt. Runtime (sec) TPSSh/def2-TZVP>
227.0

> <Original omega conformer number>
1

> <QM Turbomole Opt. Steps TPSSh/def2-TZVP>
10

> <QM Turbomole Initial Opt. Energy (Har) TPSSh/def2-TZVP>
-229.1645007416

$$$$
270
  -OEChem-04261723273D

  8  7  0     0  0  0  0  0  0999 V2000
   -1.4447   -0.1963   -0.0183 C   0  0  0  0  0  0  0  0  0  0  0  0
    0.8244   -1.0149    0.0655 O   0  0  0  0  0  0  0  0  0  0  0  0
    0.0247    0.1225   -0.0238 C   0  0  0  0  0  0  0  0  0  0  0  0
    0.4973    1.2219   -0.0052 O   0  0  0  0  0  0  0  0  0  0  0  0
   -2.0322    0.7188   -0.0467 H   0  0  0  0  0  0  0  0  0  0  0  0
   -1.6785   -0.7699    0.8818 H   0  0  0  0  0  0  0  0  0  0  0  0
   -1.6922   -0.8316   -0.8727 H   0  0  0  0  0  0  0  0  0  0  0  0
    1.0974   -1.3118   -0.8127 H   0  0  0  0  0  0  0  0  0  0  0  0
  1  3  1  0  0  0  0
  1  5  1  0  0  0  0
  1  6  1  0  0  0  0
  1  7  1  0  0  0  0
  2  3  1  0  0  0  0
  2  8  1  0  0  0  0
  3  4  2  0  0  0  0
M  END
> <QM Turbomole Final Opt. Energy (Har) TPSSh/def2-TZVP>
-229.1707335903

> <QM Turbomole Opt. Runtime (sec) TPSSh/def2-TZVP>
252.0

> <Original omega conformer number>
1

> <QM Turbomole Opt. Steps TPSSh/def2-TZVP>
11

> <QM Turbomole Initial Opt. Energy (Har) TPSSh/def2-TZVP>
-229.1635323333

$$$$
285
  -OEChem-04261723273D

  8  7  0     0  0  0  0  0  0999 V2000
   -1.4445   -0.2049   -0.0246 C   0  0  0  0  0  0  0  0  0  0  0  0
    0.8141   -1.0093    0.0691 O   0  0  0  0  0  0  0  0  0  0  0  0
    0.0208    0.1273   -0.0416 C   0  0  0  0  0  0  0  0  0  0  0  0
    0.4855    1.2315   -0.0191 O   0  0  0  0  0  0  0  0  0  0  0  0
   -2.0396    0.7054   -0.0216 H   0  0  0  0  0  0  0  0  0  0  0  0
   -1.6609   -0.8043    0.8630 H   0  0  0  0  0  0  0  0  0  0  0  0
   -1.6952   -0.8206   -0.8919 H   0  0  0  0  0  0  0  0  0  0  0  0
    1.2895   -1.1712   -0.7570 H   0  0  0  0  0  0  0  0  0  0  0  0
  1  3  1  0  0  0  0
  1  5  1  0  0  0  0
  1  6  1  0  0  0  0
  1  7  1  0  0  0  0
  2  3  1  0  0  0  0
  2  8  1  0  0  0  0
  3  4  2  0  0  0  0
M  END
> <QM Turbomole Final Opt. Energy (Har) TPSSh/def2-TZVP>
-229.1729624724

> <QM Turbomole Opt. Runtime (sec) TPSSh/def2-TZVP>
226.0

> <Original omega conformer number>
1

> <QM Turbomole Opt. Steps TPSSh/def2-TZVP>
10

> <QM Turbomole Initial Opt. Energy (Har) TPSSh/def2-TZVP>
-229.1652510907

$$$$
300
  -OEChem-04261723273D

  8  7  0     0  0  0  0  0  0999 V2000
   -1.4437   -0.2078   -0.0272 C   0  0  0  0  0  0  0  0  0  0  0  0
    0.8020   -1.0055    0.0713 O   0  0  0  0  0  0  0  0  0  0  0  0
    0.0200    0.1294   -0.0529 C   0  0  0  0  0  0  0  0  0  0  0  0
    0.4836    1.2364   -0.0372 O   0  0  0  0  0  0  0  0  0  0  0  0
   -2.0384    0.7021    0.0014 H   0  0  0  0  0  0  0  0  0  0  0  0
   -1.6515   -0.8267    0.8489 H   0  0  0  0  0  0  0  0  0  0  0  0
   -1.7013   -0.8031   -0.9063 H   0  0  0  0  0  0  0  0  0  0  0  0
    1.4464   -1.0380   -0.6499 H   0  0  0  0  0  0  0  0  0  0  0  0
  1  3  1  0  0  0  0
  1  5  1  0  0  0  0
  1  6  1  0  0  0  0
  1  7  1  0  0  0  0
  2  3  1  0  0  0  0
  2  8  1  0  0  0  0
  3  4  2  0  0  0  0
M  END
> <QM Turbomole Final Opt. Energy (Har) TPSSh/def2-TZVP>
-229.1771700148

> <QM Turbomole Opt. Runtime (sec) TPSSh/def2-TZVP>
227.0

> <Original omega conformer number>
1

> <QM Turbomole Opt. Steps TPSSh/def2-TZVP>
10

> <QM Turbomole Initial Opt. Energy (Har) TPSSh/def2-TZVP>
-229.1694240923

$$$$
315
  -OEChem-04261723273D

  8  7  0     0  0  0  0  0  0999 V2000
   -1.4427   -0.2070   -0.0245 C   0  0  0  0  0  0  0  0  0  0  0  0
    0.7920   -1.0033    0.0751 O   0  0  0  0  0  0  0  0  0  0  0  0
    0.0214    0.1281   -0.0553 C   0  0  0  0  0  0  0  0  0  0  0  0
    0.4902    1.2354   -0.0608 O   0  0  0  0  0  0  0  0  0  0  0  0
   -2.0318    0.7054    0.0221 H   0  0  0  0  0  0  0  0  0  0  0  0
   -1.6512   -0.8403    0.8407 H   0  0  0  0  0  0  0  0  0  0  0  0
   -1.7066   -0.7823   -0.9149 H   0  0  0  0  0  0  0  0  0  0  0  0
    1.5639   -0.9208   -0.5049 H   0  0  0  0  0  0  0  0  0  0  0  0
  1  3  1  0  0  0  0
  1  5  1  0  0  0  0
  1  6  1  0  0  0  0
  1  7  1  0  0  0  0
  2  3  1  0  0  0  0
  2  8  1  0  0  0  0
  3  4  2  0  0  0  0
M  END
> <QM Turbomole Final Opt. Energy (Har) TPSSh/def2-TZVP>
-229.1822905110

> <QM Turbomole Opt. Runtime (sec) TPSSh/def2-TZVP>
477.0

> <Original omega conformer number>
1

> <QM Turbomole Opt. Steps TPSSh/def2-TZVP>
23

> <QM Turbomole Initial Opt. Energy (Har) TPSSh/def2-TZVP>
-229.1747914822

$$$$
330
  -OEChem-04261723273D

  8  7  0     0  0  0  0  0  0999 V2000
   -1.4420   -0.2046   -0.0171 C   0  0  0  0  0  0  0  0  0  0  0  0
    0.7837   -1.0072    0.0639 O   0  0  0  0  0  0  0  0  0  0  0  0
    0.0241    0.1230   -0.0452 C   0  0  0  0  0  0  0  0  0  0  0  0
    0.5021    1.2283   -0.0604 O   0  0  0  0  0  0  0  0  0  0  0  0
   -2.0237    0.7128    0.0198 H   0  0  0  0  0  0  0  0  0  0  0  0
   -1.6626   -0.8314    0.8494 H   0  0  0  0  0  0  0  0  0  0  0  0
   -1.7048   -0.7791   -0.9085 H   0  0  0  0  0  0  0  0  0  0  0  0
    1.6445   -0.8227   -0.3447 H   0  0  0  0  0  0  0  0  0  0  0  0
  1  3  1  0  0  0  0
  1  5  1  0  0  0  0
  1  6  1  0  0  0  0
  1  7  1  0  0  0  0
  2  3  1  0  0  0  0
  2  8  1  0  0  0  0
  3  4  2  0  0  0  0
M  END
> <QM Turbomole Final Opt. Energy (Har) TPSSh/def2-TZVP>
-229.1871189251

> <QM Turbomole Opt. Runtime (sec) TPSSh/def2-TZVP>
326.0

> <Original omega conformer number>
1

> <QM Turbomole Opt. Steps TPSSh/def2-TZVP>
14

> <QM Turbomole Initial Opt. Energy (Har) TPSSh/def2-TZVP>
-229.1801195876

$$$$
345
  -OEChem-04261723273D

  8  7  0     0  0  0  0  0  0999 V2000
   -1.4422   -0.2025   -0.0077 C   0  0  0  0  0  0  0  0  0  0  0  0
    0.7797   -1.0112    0.0639 O   0  0  0  0  0  0  0  0  0  0  0  0
    0.0255    0.1179   -0.0312 C   0  0  0  0  0  0  0  0  0  0  0  0
    0.5132    1.2197   -0.0775 O   0  0  0  0  0  0  0  0  0  0  0  0
   -2.0156    0.7198    0.0338 H   0  0  0  0  0  0  0  0  0  0  0  0
   -1.6713   -0.8325    0.8540 H   0  0  0  0  0  0  0  0  0  0  0  0
   -1.7068   -0.7670   -0.9046 H   0  0  0  0  0  0  0  0  0  0  0  0
    1.6908   -0.7572   -0.1583 H   0  0  0  0  0  0  0  0  0  0  0  0
  1  3  1  0  0  0  0
  1  5  1  0  0  0  0
  1  6  1  0  0  0  0
  1  7  1  0  0  0  0
  2  3  1  0  0  0  0
  2  8  1  0  0  0  0
  3  4  2  0  0  0  0
M  END
> <QM Turbomole Final Opt. Energy (Har) TPSSh/def2-TZVP>
-229.1905873711

> <QM Turbomole Opt. Runtime (sec) TPSSh/def2-TZVP>
417.0

> <Original omega conformer number>
1

> <QM Turbomole Opt. Steps TPSSh/def2-TZVP>
19

> <QM Turbomole Initial Opt. Energy (Har) TPSSh/def2-TZVP>
-229.1840196341

$$$$
